%chk=C25H28O13_Conf_Cluster_0005.chk
%nproc=4
%mem=2000Mb
#p m062x-6-31G* opt

Conformer number 004. Energy MM = 0.000 kcal/mol

0 1
C          5.52500        0.51000       -9.02700
H          4.63400       -0.06600       -9.35000
O          6.37200       -0.32500       -8.22800
C          5.70900       -0.80200       -7.05100
O          6.48400       -1.74600       -6.31800
H          4.74300       -1.27200       -7.32700
C          5.41500        0.39100       -6.16800
H          6.37500        0.91900       -6.00900
O          4.86800        0.08000       -4.88400
H          5.05500       -0.84300       -4.69500
C          4.45400        1.28400       -6.90800
H          3.55100        0.67500       -7.11300
O          4.02500        2.44100       -6.18100
H          3.58300        2.09200       -5.40300
C          5.00000        1.70500       -8.24500
H          5.82400        2.42200       -8.05800
O          3.99800        2.33400       -9.04900
H          3.45200        2.83800       -8.44400
C          6.30000        0.90100      -10.24900
H          5.68000        1.51000      -10.92600
O          7.49000        1.63100       -9.87600
H          6.58600       -0.00700      -10.80600
O          5.36700       -3.79000       -6.97600
C          5.11200       -4.47800       -5.82500
H          4.07300       -4.79800       -5.85100
C          6.03300       -4.73300       -4.84800
C          7.44200       -4.15500       -4.97900
C          7.70600       -3.73000       -6.44000
C          6.56100       -2.99900       -7.00600
C          5.61300       -5.55300       -3.67600
O          6.38700       -5.86000       -2.80100
O          4.30600       -5.95100       -3.64100
H          3.84400       -5.50400       -4.35300
C          7.72800       -3.02700       -3.94300
H          8.47300       -2.31400       -4.33900
H          8.16900       -3.47800       -3.03500
C          6.53100       -2.19800       -3.43700
O          5.34600       -2.33700       -3.63500
O          7.02100       -1.20000       -2.64400
H          6.26400       -0.78100       -2.20700
C          8.01600       -6.19300       -7.12500
C          8.08100       -4.87700       -7.36800
H          8.31700       -6.91700       -7.88300
H          7.66800       -6.60300       -6.17900
H          8.44400       -4.54600       -8.34500
H          8.18900       -4.93500       -4.73000
H          8.56700       -3.03400       -6.45400
H          6.76800       -2.80000       -8.07500
C          8.21800        2.21800      -10.87600
C          9.45700        2.91600      -10.48000
C          9.84300        2.95800       -9.17700
O          7.89300        2.19500      -12.04200
H         10.03200        3.38000      -11.27700
H          9.22700        2.48400       -8.40900
C         11.31800        3.63400       -7.28300
H         10.59700        3.18500       -6.58500
C         12.45400        4.22300       -6.76200
H         12.62000        4.24800       -5.67400
C         13.40700        4.81900       -7.60700
C         13.19700        4.80800       -8.99000
H         13.94000        5.26100       -9.67000
C         12.05400        4.20600       -9.50600
H         11.92200        4.20400      -10.59600
C         11.09400        3.61600       -8.66500
O         14.49400        5.38300       -7.01700
H         15.01900        5.83200       -7.66600


