%chk=C25H28O13_Conf_Cluster_0006.chk
%nproc=4
%mem=2000Mb
#p m062x-6-31G* opt

Conformer number 005. Energy MM = 0.000 kcal/mol

0 1
C          1.22400       -0.67400       -6.03900
H          0.75100       -1.31500       -5.26900
O          2.64500       -0.72500       -5.93600
C          3.11100       -0.34900       -4.63100
O          4.52700       -0.30700       -4.57600
H          2.72000       -1.06300       -3.87600
C          2.66600        1.04400       -4.21700
H          3.21000        1.75400       -4.87000
O          2.97200        1.34300       -2.84400
H          3.91400        1.21700       -2.73500
C          1.19900        1.25200       -4.45500
H          0.64300        0.65700       -3.70600
O          0.77600        2.61600       -4.37600
H          0.61900        2.84400       -3.46000
C          0.80600        0.75000       -5.81500
H          1.32300        1.37900       -6.56900
O         -0.58700        0.81700       -6.02000
H         -0.82100        1.70000       -5.74600
C          0.79000       -1.23300       -7.38400
H          1.33900       -2.17700       -7.54600
O         -0.62000       -1.57900       -7.41000
H          1.07500       -0.55800       -8.20100
O          5.56400       -2.15100       -3.56100
C          6.39600       -3.22500       -3.66200
H          6.55600       -3.63700       -2.66500
C          6.96200       -3.66500       -4.82100
C          6.57600       -2.96900       -6.13800
C          6.15300       -1.55000       -5.80700
C          5.09500       -1.60400       -4.79000
C          7.90600       -4.80100       -4.63400
O          8.54200       -5.28600       -5.54800
O          8.04400       -5.27500       -3.36400
H          8.67900       -5.99300       -3.37500
C          7.59500       -3.07300       -7.29300
H          7.18300       -2.59800       -8.20100
H          7.79200       -4.12600       -7.56200
C          8.95100       -2.41500       -7.03400
O          9.38000       -1.89200       -6.03300
O          9.69200       -2.55800       -8.17000
H         10.60500       -2.28000       -8.00800
C          4.99500       -1.16600       -8.06000
C          5.71100       -0.73400       -7.01500
H          4.70400       -0.48700       -8.86100
H          4.66200       -2.19900       -8.15200
H          5.98300        0.32400       -6.95100
H          5.69000       -3.51300       -6.51700
H          7.01100       -1.00800       -5.36200
H          4.32100       -2.29200       -5.17100
C         -1.64700       -1.06200       -8.17500
C         -1.38300        0.08100       -9.09300
C         -2.38800        0.52300       -9.90200
O         -2.74900       -1.55900       -8.11400
H         -0.39600        0.53100       -9.09700
H         -3.35900        0.02000       -9.89400
C         -3.27500        1.86900      -11.84700
H         -4.11000        1.16100      -11.96900
C         -3.22700        2.95400      -12.71100
H         -3.99900        3.08500      -13.48800
C         -2.19900        3.90100      -12.58900
C         -1.22800        3.72600      -11.59800
H         -0.41200        4.45500      -11.47800
C         -1.27500        2.63800      -10.74500
H         -0.50800        2.57000       -9.96600
C         -2.29800        1.68700      -10.85200
O         -2.16400        4.98400      -13.41900
H         -1.44900        5.50400      -13.06400


