%chk=C25H28O13_Conf_Cluster_0009.chk
%nproc=4
%mem=2000Mb
#p m062x-6-31G* opt

Conformer number 008. Energy MM = 0.000 kcal/mol

0 1
C          2.98400       -2.88600       -1.11700
H          3.07600       -2.00400       -0.45300
O          3.83400       -2.74700       -2.25800
C          3.52500       -1.58000       -3.02800
O          4.41800       -1.30200       -4.09900
H          3.58500       -0.68300       -2.38500
C          2.10600       -1.66600       -3.55800
H          2.04800       -2.56300       -4.20500
O          1.71100       -0.51700       -4.32100
H          2.37300       -0.41200       -5.00500
C          1.13600       -1.85300       -2.43100
H          1.15300       -0.93300       -1.81400
O         -0.20700       -2.06000       -2.88800
H         -0.36600       -1.32500       -3.48100
C          1.53900       -3.00200       -1.55200
H          1.43200       -3.92800       -2.15100
O          0.72300       -3.10000       -0.38700
H         -0.17500       -3.08000       -0.71800
C          3.45400       -4.09600       -0.36700
H          3.43700       -4.95600       -1.05700
O          4.81300       -3.99200        0.09800
H          2.78200       -4.34300        0.47000
O          6.16800       -2.87900       -3.78100
C          6.86500       -3.93700       -4.28000
H          7.13100       -4.60900       -3.46700
C          7.15600       -4.05200       -5.60600
C          6.62000       -2.99900       -6.58300
C          5.69300       -1.97500       -5.89500
C          5.10700       -2.43900       -4.62900
C          7.97300       -5.21700       -6.05000
O          8.20300       -5.41600       -7.21900
O          8.45800       -6.04700       -5.07800
H          8.25400       -5.70800       -4.20900
C          7.75400       -2.27000       -7.34800
H          7.32400       -1.48700       -7.99700
H          8.31400       -2.95700       -8.00600
C          8.77800       -1.58900       -6.42300
O          9.00700       -1.80200       -5.25800
O          9.44400       -0.64800       -7.14400
H         10.11900       -0.27300       -6.55400
C          3.41600       -1.80500       -7.06300
C          4.70000       -1.45100       -6.92200
H          2.80300       -1.37900       -7.85700
H          2.93600       -2.54600       -6.42500
H          5.13100       -0.73300       -7.62700
H          6.02900       -3.54500       -7.34500
H          6.31000       -1.11200       -5.57000
H          4.41200       -3.28300       -4.77900
C          5.05400       -3.56600        1.37000
C          6.48300       -3.58800        1.70500
C          6.93300       -3.23400        2.93900
O          4.19500       -3.22100        2.15100
H          7.15100       -3.91400        0.91200
H          6.23600       -2.92800        3.72400
C          8.74300       -3.06600        4.67300
H          7.98100       -2.91000        5.45600
C         10.07500       -3.08700        5.04800
H         10.33000       -2.94400        6.10600
C         11.08500       -3.30200        4.10700
C         10.73200       -3.47700        2.76200
H         11.53000       -3.63800        2.02000
C          9.40100       -3.44900        2.37900
H          9.18500       -3.58500        1.31300
C          8.38300       -3.25100        3.32800
O         12.40300       -3.35200        4.43200
H         12.49700       -3.29400        5.37400


