%chk=C25H28O13_Conf_Cluster_0008.chk
%nproc=4
%mem=2000Mb
#p m062x-6-31G* opt

Conformer number 007. Energy MM = 0.000 kcal/mol

0 1
C          3.05600       -0.69600       -9.38700
H          2.76300       -1.76300       -9.35400
O          4.17300       -0.46500       -8.53000
C          3.89600       -0.70500       -7.15300
O          5.08900       -0.56300       -6.36200
H          3.48400       -1.72500       -7.03400
C          2.83300        0.26200       -6.66100
H          3.21500        1.28500       -6.83900
O          2.52600        0.11200       -5.26300
H          3.31500        0.40900       -4.80700
C          1.57800        0.07500       -7.47100
H          1.18700       -0.93400       -7.22700
O          0.54600        1.03900       -7.22400
H          0.20000        0.88800       -6.34500
C          1.83200        0.09400       -8.95900
H          1.97400        1.15500       -9.24600
O          0.74000       -0.46400       -9.69300
H         -0.04600        0.03700       -9.46700
C          3.51900       -0.31800      -10.76200
H          2.68900       -0.22600      -11.48100
O          4.22700        0.93700      -10.66600
H          4.19900       -1.08700      -11.16600
O          5.90500       -1.51200       -4.38600
C          6.38700       -2.58400       -3.70200
H          6.18600       -2.44800       -2.63800
C          7.03700       -3.63000       -4.28900
C          7.19200       -3.66000       -5.81900
C          6.79900       -2.30800       -6.42600
C          5.60000       -1.76600       -5.75700
C          7.50600       -4.66300       -3.31700
O          8.07500       -5.69300       -3.63700
O          7.25300       -4.40000       -2.00300
H          7.61800       -5.11000       -1.46100
C          8.58500       -4.14100       -6.30400
H          8.62100       -4.11900       -7.40900
H          8.77400       -5.18800       -6.00900
C          9.77700       -3.31300       -5.79700
O          9.87000       -2.66600       -4.77900
O         10.78100       -3.44200       -6.70600
H         11.52500       -2.86300       -6.47000
C          6.34700       -3.36700       -8.73700
C          6.59900       -2.32600       -7.93200
H          6.21200       -3.21000       -9.80900
H          6.27700       -4.39300       -8.38400
H          6.63000       -1.32800       -8.38200
H          6.47500       -4.42100       -6.17900
H          7.61800       -1.59100       -6.22700
H          4.82300       -2.54900       -5.77000
C          4.68000        1.53700      -11.79900
C          5.58300        2.67100      -11.53400
C          6.16300        3.40800      -12.51800
O          4.38800        1.18500      -12.92300
H          5.77600        2.88800      -10.48600
H          5.93800        3.22700      -13.57300
C          7.34400        5.53400      -13.16100
H          6.77000        5.56200      -14.10000
C          8.24400        6.55700      -12.90900
H          8.37200        7.37000      -13.64000
C          8.98000        6.57700      -11.71500
C          8.80700        5.53500      -10.79400
H          9.39300        5.53100       -9.86000
C          7.90200        4.51600      -11.04100
H          7.80400        3.72100      -10.28800
C          7.14500        4.50600      -12.22600
O          9.81300        7.63200      -11.42100
H          9.76400        7.59900      -10.46500


