%chk=C25H28O13_Conf_Cluster_0003.chk
%nproc=4
%mem=2000Mb
#p m062x-6-31G* opt

Conformer number 002. Energy MM = 0.000 kcal/mol

0 1
C          3.94300        1.68800       -8.19400
H          3.75500        0.81800       -8.85300
O          4.85000        1.32800       -7.15400
C          4.30600        0.32700       -6.28600
O          5.28800       -0.17000       -5.35500
H          3.93800       -0.51200       -6.90200
C          3.09800        0.88800       -5.55500
H          3.41900        1.81200       -5.03700
O          2.52500       -0.01000       -4.58800
H          3.20300       -0.14800       -3.92800
C          2.05200        1.25400       -6.57500
H          1.71600        0.31200       -7.05300
O          0.91900        1.93800       -6.04600
H          0.44200        1.33700       -5.47800
C          2.59800        2.13500       -7.66800
H          2.71100        3.14900       -7.23800
O          1.73500        2.18900       -8.80900
H          0.95700        2.68400       -8.55200
C          4.60900        2.74200       -9.03100
H          5.16400        3.43500       -8.37600
O          5.49900        2.11300       -9.96400
H          3.87100        3.34900       -9.58100
O          5.77000       -2.07200       -4.12500
C          6.03200       -3.40200       -4.03700
H          5.73700       -3.75900       -3.05100
C          6.59800       -4.13500       -5.03600
C          6.90300       -3.44800       -6.37900
C          6.76200       -1.92500       -6.26000
C          5.57700       -1.57800       -5.44900
C          6.82100       -5.57300       -4.67800
O          7.30200       -6.39100       -5.43900
O          6.43700       -5.94400       -3.42200
H          6.64100       -6.87500       -3.28100
C          8.25100       -3.87700       -7.00800
H          8.40000       -3.33300       -7.95700
H          8.25000       -4.95200       -7.26400
C          9.51200       -3.62600       -6.16500
O          9.62300       -3.47300       -4.97500
O         10.56200       -3.60500       -7.03800
H         11.38600       -3.50900       -6.54000
C          6.39600       -1.67400       -8.79500
C          6.73500       -1.19400       -7.59200
H          6.39800       -1.02400       -9.67000
H          6.10400       -2.71000       -8.96300
H          6.99400       -0.13200       -7.50800
H          6.12800       -3.81600       -7.07800
H          7.63900       -1.53800       -5.70300
H          4.70300       -2.10900       -5.86500
C          5.69600        2.70400      -11.17600
C          6.14200        1.72200      -12.16200
C          6.32700        2.00600      -13.47900
O          5.44900        3.86200      -11.43900
H          6.27300        0.72200      -11.76100
H          6.19300        3.02100      -13.85800
C          6.65200        1.22000      -15.86200
H          6.44700        2.23300      -16.24400
C          6.87800        0.20800      -16.78300
H          6.87600        0.43800      -17.85800
C          7.07400       -1.10800      -16.35900
C          7.11600       -1.38600      -14.98700
H          7.31400       -2.42000      -14.66600
C          6.92100       -0.37600      -14.06900
H          6.96100       -0.66800      -13.01400
C          6.65300        0.93800      -14.48400
O          7.22000       -2.15200      -17.21100
H          7.28700       -1.83400      -18.10500


