%chk=C10H24O2_pair_025_075.chk
%nproc=8
%mem=8000Mb
#p opt b3lyp/6-31G**

Conformer number 262. Energy MM = 0.000 kcal/mol

0 1
H         25.72800       15.69600       13.03600
C         25.00500       15.99900       12.31700
C         25.24100       15.23700       11.00800
H         24.09100       15.60900       12.67300
H         25.11800       17.06300       12.17700
H         25.10000       14.24400       11.40600
H         26.33000       15.23100       10.75000
C         24.32000       15.53000        9.95400
C         22.98600       15.98700       10.30300
H         24.65200       16.36600        9.23800
H         22.95400       16.93900       10.88700
H         22.50600       15.29100       11.06400
O         24.28700       14.46700        9.04800
H         23.50800       13.96500        9.21300
C         22.07600       16.12000        9.13000
H         21.06100       16.41900        9.54100
H         21.86100       15.18600        8.67700
H         22.49900       16.88600        8.35500
H         25.11800       23.14800       13.12200
C         25.46300       22.09400       12.81500
C         26.92100       22.06600       12.34900
H         25.27200       21.45600       13.73500
H         24.73400       21.81100       12.07000
H         27.55100       21.63500       13.17700
H         27.37600       23.06800       12.18800
C         27.12900       21.17700       11.16900
C         26.67300       19.79100       11.35100
H         26.54200       21.63700       10.39100
H         25.66000       19.68200       11.69500
H         27.34300       19.38800       12.18000
O         28.49000       21.12700       10.87300
H         28.93100       20.80400       11.69600
C         26.72100       18.75000       10.15600
H         26.47100       17.76700       10.69500
H         27.67400       18.86200        9.62600
H         25.97000       18.83600        9.36400


