%chk=C10H24O2_pair_003_039.chk
%nproc=8
%mem=8000Mb
#p opt b3lyp/6-31G**

Conformer number 041. Energy MM = 0.000 kcal/mol

0 1
H         19.99400        1.66500       12.36000
C         19.77900        2.69000       12.56500
C         18.94600        3.30900       11.42700
H         19.30200        2.74700       13.54400
H         20.75500        3.22300       12.63000
H         19.64000        3.62700       10.63900
H         18.38500        4.15800       11.81700
C         18.00700        2.38600       10.86000
C         17.32400        2.92900        9.74000
H         18.60900        1.47200       10.55400
H         18.05500        3.38700        9.14300
H         16.54600        3.63600       10.08700
O         17.03800        2.13600       11.83500
H         16.69600        3.01900       12.02500
C         16.72300        1.91300        8.73300
H         16.10000        2.45200        7.98900
H         16.01800        1.24600        9.23600
H         17.52900        1.31400        8.13500
H         14.27000       -0.33800        8.90300
C         14.36600       -1.26400        8.37400
C         15.16600       -2.34800        9.13900
H         13.35300       -1.54100        8.17600
H         14.79100       -0.90600        7.41900
H         16.17600       -1.90200        9.38200
H         15.31200       -3.18600        8.48000
C         14.56800       -2.77300       10.40700
C         13.19900       -3.24500       10.10800
H         15.10200       -3.62700       10.75800
H         13.19900       -3.82400        9.13700
H         12.52500       -2.37300        9.97100
O         14.43300       -1.82900       11.51200
H         15.30100       -1.41400       11.62600
C         12.55500       -3.99700       11.25300
H         11.66700       -4.68600       11.03200
H         12.26000       -3.41000       12.17800
H         13.21700       -4.73200       11.67300


