%chk=C10H24O2_pair_058_072.chk
%nproc=8
%mem=8000Mb
#p opt b3lyp/6-31G**

Conformer number 496. Energy MM = 0.000 kcal/mol

0 1
H         14.73700       17.79000        6.31100
C         15.24700       18.61500        5.79500
C         14.44400       19.96100        5.76100
H         16.24000       18.70100        6.18100
H         15.38300       18.37300        4.75100
H         15.07600       20.79200        5.32800
H         14.28000       20.17600        6.87600
C         13.23600       19.80000        4.96600
C         12.47900       21.05200        4.70800
H         13.59500       19.38300        3.96500
H         12.34700       21.71100        5.61500
H         11.51500       20.60600        4.40100
O         12.31700       18.88500        5.46100
H         12.72900       18.01000        5.21700
C         13.01200       21.91200        3.57800
H         12.33500       22.72600        3.30800
H         13.04200       21.33000        2.61600
H         14.02500       22.27700        3.74000
H          5.85600       28.06600        3.61100
C          5.97600       27.51600        2.67300
C          6.50000       26.11500        3.03300
H          5.07800       27.50300        2.10600
H          6.75900       28.03600        2.09000
H          6.49300       25.44900        2.15000
H          5.97500       25.64000        3.83400
C          7.87100       26.15200        3.50300
C          8.47100       24.81300        3.65400
H          8.48400       26.73800        2.78000
H          8.61700       24.38700        2.65500
H          7.68600       24.22800        4.19700
O          7.99700       26.91200        4.69100
H          7.84300       26.30500        5.41300
C          9.81400       24.73000        4.31300
H         10.20300       23.72100        4.45800
H          9.64700       25.07700        5.38600
H         10.57800       25.31600        3.78300


