%chk=C10H24O2_pair_055_067.chk
%nproc=8
%mem=8000Mb
#p opt b3lyp/6-31G**

Conformer number 478. Energy MM = 0.000 kcal/mol

0 1
H          3.02300       17.04200       15.56300
C          3.19300       17.73500       14.67900
C          2.88400       19.22200       15.16500
H          4.20800       17.65100       14.40200
H          2.62700       17.47800       13.75400
H          1.95000       19.42900       15.65800
H          2.78100       19.77300       14.21400
C          3.98200       19.79400       16.00800
C          3.78600       21.24000       16.21100
H          4.00100       19.16300       16.90500
H          2.75100       21.53500       16.53800
H          3.81900       21.70500       15.17700
O          5.23600       19.67400       15.34000
H          5.92600       19.51200       15.97700
C          4.80700       21.98600       17.08200
H          4.71700       21.84500       18.18800
H          4.68000       23.06800       16.94400
H          5.85500       21.61800       16.88700
H          7.87500       25.63000       20.95800
C          7.07700       25.07200       20.42100
C          5.86600       25.91300       19.95500
H          7.51900       24.53300       19.55200
H          6.64100       24.33800       21.10100
H          5.50900       26.53800       20.80700
H          5.03400       25.25500       19.86300
C          5.90700       26.72300       18.78000
C          6.02900       26.02300       17.49700
H          4.98500       27.32800       18.77900
H          5.43800       25.11100       17.37700
H          7.12100       25.69500       17.35000
O          7.07200       27.57800       18.88400
H          6.93100       27.90600       19.73000
C          5.74500       26.98600       16.37900
H          5.70900       26.68800       15.35200
H          6.50300       27.77000       16.44900
H          4.77500       27.42100       16.58500


