%chk=C10H24O2_pair_006_073.chk
%nproc=8
%mem=8000Mb
#p opt b3lyp/6-31G**

Conformer number 076. Energy MM = 0.000 kcal/mol

0 1
H          5.20400        1.78700        6.55400
C          5.06300        0.71100        6.51400
C          5.91000       -0.04600        7.51800
H          4.06900        0.44000        6.79800
H          5.31800        0.47200        5.40700
H          5.66000       -1.15000        7.58300
H          5.78200        0.33200        8.50600
C          7.33200        0.03600        7.17500
C          8.28700       -0.69100        8.03900
H          7.44100       -0.38200        6.15400
H          7.97300       -1.77800        8.21800
H          8.28700       -0.29000        9.04700
O          7.79100        1.43400        7.03500
H          7.34600        1.86200        7.78000
C          9.78100       -0.73400        7.68000
H         10.35800        0.14300        7.88800
H          9.96400       -1.02800        6.63300
H         10.27800       -1.48700        8.27700
H         10.59100       -0.16800       10.74800
C         10.16600       -0.86300       11.58100
C         10.59400       -0.35700       12.95500
H          9.04500       -0.99300       11.45300
H         10.51100       -1.89500       11.31700
H         10.05500       -0.80800       13.80000
H         10.25700        0.73500       12.99000
C         12.01700       -0.53700       13.19200
C         12.48400       -0.01800       14.49700
H         12.32400       -1.60800       13.18800
H         11.95700       -0.57600       15.26300
H         12.23000        1.04200       14.61300
O         12.81200        0.07200       12.12500
H         13.18100       -0.70900       11.71100
C         13.93400       -0.10500       14.67000
H         14.41300       -1.02100       14.27600
H         14.37900       -0.05700       15.71900
H         14.39700        0.61800       14.04400


