%chk=C10H24O2_pair_015_065.chk
%nproc=8
%mem=8000Mb
#p opt b3lyp/6-31G**

Conformer number 166. Energy MM = 0.000 kcal/mol

0 1
H         19.97000       10.36900       18.23100
C         20.01300       11.29400       17.64300
C         21.09900       12.18800       18.12300
H         20.34700       11.08000       16.60300
H         18.97400       11.62600       17.65800
H         22.15600       11.75400       18.10600
H         20.94700       12.47800       19.19700
C         21.21300       13.46300       17.45200
C         19.99600       14.24500       17.57700
H         22.07600       14.07400       17.82100
H         19.89200       14.44500       18.69000
H         19.10300       13.74900       17.23200
O         21.39500       13.24400       16.04700
H         22.21800       12.82100       16.10300
C         20.08700       15.59300       16.90200
H         19.20300       16.22500       17.03500
H         20.29700       15.46100       15.85900
H         20.82200       16.14900       17.35100
H         18.59700       16.65800       14.05900
C         19.42800       16.50200       13.32600
C         19.17000       15.33400       12.40200
H         19.38500       17.47200       12.76100
H         20.41800       16.45300       13.89900
H         20.00200       15.35500       11.64300
H         18.17000       15.66100       11.95100
C         18.99000       13.94400       12.91200
C         17.91100       13.78200       13.83700
H         18.64100       13.41900       12.07600
H         17.02800       14.39900       13.59600
H         18.23400       14.20100       14.83500
O         20.16200       13.35900       13.38200
H         20.32200       13.73900       14.25200
C         17.25600       12.36700       14.08600
H         16.56100       12.53500       14.96000
H         17.86900       11.49800       14.41800
H         16.67600       12.08600       13.20600


