%chk=C10H24O2_pair_055_068.chk
%nproc=8
%mem=8000Mb
#p opt b3lyp/6-31G**

Conformer number 479. Energy MM = 0.000 kcal/mol

0 1
H          3.02300       17.04200       15.56300
C          3.19300       17.73500       14.67900
C          2.88400       19.22200       15.16500
H          4.20800       17.65100       14.40200
H          2.62700       17.47800       13.75400
H          1.95000       19.42900       15.65800
H          2.78100       19.77300       14.21400
C          3.98200       19.79400       16.00800
C          3.78600       21.24000       16.21100
H          4.00100       19.16300       16.90500
H          2.75100       21.53500       16.53800
H          3.81900       21.70500       15.17700
O          5.23600       19.67400       15.34000
H          5.92600       19.51200       15.97700
C          4.80700       21.98600       17.08200
H          4.71700       21.84500       18.18800
H          4.68000       23.06800       16.94400
H          5.85500       21.61800       16.88700
H          3.07600       16.26600       20.28000
C          2.53400       16.61900       19.47400
C          2.39800       15.57700       18.37600
H          3.10900       17.46500       19.12800
H          1.58000       17.10200       19.86400
H          3.40900       15.35100       18.18700
H          1.80700       15.88900       17.52800
C          1.75500       14.36900       18.88500
C          0.34300       14.43700       19.37400
H          2.39300       13.92800       19.67100
H         -0.22600       14.73300       18.50800
H          0.11000       15.23100       20.10700
O          1.77800       13.31300       17.84800
H          2.70000       13.28500       17.50300
C         -0.17000       13.01700       19.91900
H          0.25700       12.66400       20.85900
H          0.04200       12.23100       19.20800
H         -1.25400       12.90500       20.10000


