%chk=C10H24O2_pair_007_036.chk
%nproc=8
%mem=8000Mb
#p opt b3lyp/6-31G**

Conformer number 082. Energy MM = 0.000 kcal/mol

0 1
H         22.93600        0.29600       -1.74400
C         23.63700        0.37400       -0.87600
C         23.09300        1.34700        0.17700
H         23.76600       -0.56100       -0.39100
H         24.65400        0.60800       -1.41100
H         23.43300        2.36100       -0.03900
H         23.52400        1.15900        1.12900
C         21.66200        1.28300        0.28500
C         21.15800        2.28500        1.21100
H         21.32600        1.47000       -0.75100
H         21.54500        3.30200        0.86700
H         21.69200        2.09100        2.15500
O         21.18300        0.01300        0.60600
H         21.62300       -0.62000        0.02700
C         19.65500        2.24600        1.32200
H         19.20800        2.56200        0.32000
H         19.35700        2.99200        2.10500
H         19.21200        1.19500        1.55800
H         15.86800        5.45700       -0.48600
C         15.07300        5.46000       -1.25300
C         14.92300        4.13900       -2.01600
H         14.09800        5.72200       -0.82000
H         15.35700        6.31500       -1.85300
H         15.70300        4.03600       -2.80700
H         14.00500        4.24700       -2.61500
C         14.81000        2.90600       -1.21000
C         15.87400        2.65400       -0.16900
H         13.84300        3.03300       -0.68000
H         15.58400        3.37800        0.59500
H         16.86300        2.96200       -0.56300
O         14.63600        1.84300       -2.12400
H         14.35400        1.08500       -1.60000
C         15.93600        1.29000        0.35400
H         14.92700        0.96600        0.69600
H         16.70600        1.04400        1.07300
H         16.14000        0.63500       -0.54100


