%chk=C10H24O2_pair_042_068.chk
%nproc=8
%mem=8000Mb
#p opt b3lyp/6-31G**

Conformer number 405. Energy MM = 0.000 kcal/mol

0 1
H          5.15000       12.20200       21.15400
C          4.86300       12.78700       20.26900
C          6.10500       13.01300       19.44300
H          4.22400       12.02700       19.83000
H          4.33200       13.74600       20.59300
H          6.78200       13.62600       20.01500
H          5.80100       13.58100       18.52400
C          6.68900       11.81000       19.02900
C          8.07200       11.89300       18.51500
H          6.75600       11.10700       19.90400
H          8.26600       10.89100       17.93800
H          8.82500       11.80300       19.34300
O          5.86300       11.22800       17.98900
H          5.84200       10.25400       18.13800
C          8.35700       12.86600       17.38500
H          7.60700       12.72600       16.56200
H          9.27200       12.52300       16.97400
H          8.45100       13.98900       17.56500
H          3.07600       16.26600       20.28000
C          2.53400       16.61900       19.47400
C          2.39800       15.57700       18.37600
H          3.10900       17.46500       19.12800
H          1.58000       17.10200       19.86400
H          3.40900       15.35100       18.18700
H          1.80700       15.88900       17.52800
C          1.75500       14.36900       18.88500
C          0.34300       14.43700       19.37400
H          2.39300       13.92800       19.67100
H         -0.22600       14.73300       18.50800
H          0.11000       15.23100       20.10700
O          1.77800       13.31300       17.84800
H          2.70000       13.28500       17.50300
C         -0.17000       13.01700       19.91900
H          0.25700       12.66400       20.85900
H          0.04200       12.23100       19.20800
H         -1.25400       12.90500       20.10000


