%chk=C10H24O2_pair_039_097.chk
%nproc=8
%mem=8000Mb
#p opt b3lyp/6-31G**

Conformer number 384. Energy MM = 0.000 kcal/mol

0 1
H         14.27000       24.12400        8.90300
C         14.36600       23.19800        8.37400
C         15.16600       22.11400        9.13900
H         13.35300       22.92100        8.17600
H         14.79100       23.55600        7.41900
H         16.17600       22.56000        9.38200
H         15.31200       21.27600        8.48000
C         14.56800       21.68900       10.40700
C         13.19900       21.21700       10.10800
H         15.10200       20.83500       10.75800
H         13.19900       20.63800        9.13700
H         12.52500       22.08900        9.97100
O         14.43300       22.63300       11.51200
H         15.30100       23.04800       11.62600
C         12.55500       20.46500       11.25300
H         11.66700       19.77600       11.03200
H         12.26000       21.05200       12.17800
H         13.21700       19.73000       11.67300
H         15.76200       16.56800       14.49700
C         15.54100       17.19900       13.63900
C         15.68900       18.59200       14.16000
H         16.13600       16.96700       12.73600
H         14.51800       16.98900       13.36000
H         15.51700       19.29000       13.29000
H         16.77300       18.73300       14.37300
C         14.85300       19.04200       15.26000
C         14.92800       20.40700       15.77400
H         13.74500       18.99900       14.89400
H         14.29600       20.36600       16.65100
H         14.31700       21.08400       15.19000
O         14.97700       18.27100       16.45800
H         14.30700       17.59200       16.42800
C         16.28300       20.89600       16.24800
H         16.78200       20.00600       16.65100
H         16.45100       21.58300       17.09500
H         16.84400       21.22200       15.40100


