%chk=C10H24O2_pair_002_022.chk
%nproc=8
%mem=8000Mb
#p opt b3lyp/6-31G**

Conformer number 026. Energy MM = 0.000 kcal/mol

0 1
H         22.43700       20.29800       10.86400
C         22.75800       20.08000        9.82200
C         21.79600       20.58700        8.74700
H         23.79600       20.42400        9.67500
H         22.74100       18.94300        9.83700
H         21.93800       21.61100        8.44500
H         20.80700       20.47200        9.17600
C         21.77300       19.71800        7.56400
C         22.97900       19.84100        6.81400
H         21.74000       18.69200        7.88300
H         23.92500       19.82300        7.46100
H         22.86700       20.68300        6.10100
O         20.60400       19.77900        6.67500
H         20.68100       20.54200        6.10600
C         23.26900       18.67300        5.80400
H         22.46100       18.66200        5.04000
H         23.19800       17.72100        6.32600
H         24.30200       18.87100        5.38000
H         25.62400       18.19500        7.18500
C         26.18000       17.28200        7.16500
C         25.52500       16.13900        6.46900
H         27.08900       17.52500        6.51000
H         26.53100       17.00900        8.08500
H         25.15300       16.31200        5.39400
H         24.61800       15.82600        7.01600
C         26.26300       14.89700        6.50900
C         25.66400       13.79400        5.76800
H         27.25800       15.11000        6.10700
H         26.40600       12.96800        5.63200
H         25.43500       14.17700        4.79700
O         26.51700       14.58900        7.84300
H         25.62700       14.47600        8.23600
C         24.41500       13.20300        6.36300
H         23.97100       12.46200        5.58200
H         23.71400       14.01300        6.60700
H         24.60000       12.67100        7.32000


