%chk=C10H24O2_pair_000_061.chk
%nproc=8
%mem=8000Mb
#p opt b3lyp/6-31G**

Conformer number 007. Energy MM = 0.000 kcal/mol

0 1
H          9.65300       13.53000        9.14100
C          8.67700       13.24300        9.58800
C          8.71400       11.82800       10.24500
H          8.30800       13.94500       10.33400
H          7.92300       13.29500        8.76300
H          9.10800       11.21700        9.44200
H          7.70000       11.38700       10.49000
C          9.60000       11.64300       11.37100
C          9.01700       12.41900       12.48100
H          9.51000       10.51700       11.63400
H          7.97500       12.21500       12.75000
H          8.96700       13.49300       12.14600
O         10.90000       12.08900       11.19600
H         11.21300       11.64900       10.39700
C          9.85400       12.34100       13.78500
H          9.31100       12.90000       14.53800
H         10.90300       12.78000       13.65000
H          9.94200       11.24000       14.23600
H          6.34400       17.03700       10.49900
C          5.94600       16.12800       10.92900
C          4.87900       15.67400        9.96900
H          6.63700       15.32700       11.11600
H          5.53000       16.39700       11.89700
H          4.05100       16.39900        9.96100
H          4.42200       14.76500       10.45900
C          5.36000       15.38100        8.62600
C          5.45400       16.61000        7.75100
H          6.39300       14.97100        8.64100
H          6.08200       17.39900        8.25400
H          4.42500       17.07300        7.68200
O          4.60400       14.30000        8.01100
H          3.71600       14.65700        8.00800
C          6.09400       16.50300        6.35000
H          7.21900       16.67400        6.45500
H          5.77700       17.25700        5.69900
H          5.94100       15.52400        5.89300


