%chk=C10H24O2_pair_064_073.chk
%nproc=8
%mem=8000Mb
#p opt b3lyp/6-31G**

Conformer number 524. Energy MM = 0.000 kcal/mol

0 1
H         12.56400       23.74700       18.39000
C         12.48100       22.75600       17.98700
C         12.93200       21.66400       18.95300
H         11.38500       22.54000       17.77400
H         13.03400       22.60700       17.12900
H         12.86600       20.57200       18.52600
H         12.26200       21.67000       19.84500
C         14.33500       21.82900       19.45600
C         14.81400       20.53300       20.02000
H         14.90900       22.32700       18.72700
H         15.21000       19.95400       19.23200
H         13.98600       20.01200       20.48000
O         14.30600       22.66400       20.61400
H         14.33000       23.63000       20.39100
C         15.99900       20.45600       21.07200
H         16.87700       20.74800       20.51400
H         16.07200       19.36100       21.47100
H         15.95700       21.08900       21.94900
H         10.59100       24.29400       10.74800
C         10.16600       23.59900       11.58100
C         10.59400       24.10500       12.95500
H          9.04500       23.46900       11.45300
H         10.51100       22.56700       11.31700
H         10.05500       23.65400       13.80000
H         10.25700       25.19700       12.99000
C         12.01700       23.92500       13.19200
C         12.48400       24.44400       14.49700
H         12.32400       22.85400       13.18800
H         11.95700       23.88600       15.26300
H         12.23000       25.50400       14.61300
O         12.81200       24.53400       12.12500
H         13.18100       23.75300       11.71100
C         13.93400       24.35700       14.67000
H         14.41300       23.44100       14.27600
H         14.37900       24.40500       15.71900
H         14.39700       25.08000       14.04400


