%chk=C10H24O2_pair_053_063.chk
%nproc=8
%mem=8000Mb
#p opt b3lyp/6-31G**

Conformer number 472. Energy MM = 0.000 kcal/mol

0 1
H         13.17900       14.02300        0.61300
C         12.40300       14.77600        0.95500
C         12.82500       16.18100        0.60800
H         11.41400       14.55600        0.57700
H         12.23200       14.57700        1.98700
H         12.84700       16.36200       -0.46300
H         13.77900       16.28300        1.04200
C         11.88300       17.11400        1.14400
C         12.13400       18.54500        0.92900
H         10.81500       16.86500        0.65100
H         12.16400       18.74500       -0.09100
H         13.14800       18.71100        1.45400
O         11.81900       16.86800        2.52700
H         10.90600       17.08900        2.81500
C         11.07900       19.50500        1.51800
H         10.94000       19.26500        2.56500
H         10.21600       19.48900        0.86100
H         11.46900       20.56900        1.48500
H          8.52200       20.71600        3.22600
C          7.82400       21.19600        3.87300
C          8.25900       21.19200        5.34100
H          7.70500       22.22800        3.51900
H          6.90300       20.61500        3.73100
H          7.39400       21.63800        5.86100
H          9.03200       21.94400        5.48100
C          8.67500       19.93100        5.86800
C          9.23200       20.07000        7.21000
H          7.83400       19.34300        6.06100
H          8.40200       20.41800        7.83700
H         10.05100       20.87400        7.24300
O          9.55300       19.25600        5.02400
H         10.46400       19.37900        5.33100
C          9.84900       18.89200        7.94100
H         10.22200       19.17900        8.91800
H         10.68700       18.34300        7.34900
H          9.08700       18.09500        8.12600


