%chk=C10H24O2_pair_031_052.chk
%nproc=8
%mem=8000Mb
#p opt b3lyp/6-31G**

Conformer number 317. Energy MM = 0.000 kcal/mol

0 1
H          3.67000       21.61700        3.82500
C          3.75700       21.02400        2.89700
C          3.62500       19.45600        3.04300
H          2.98600       21.47700        2.15600
H          4.71000       21.36500        2.42300
H          4.26300       19.13200        3.89800
H          4.03900       19.06000        2.11700
C          2.30000       18.93100        3.20900
C          2.17900       17.45400        3.25000
H          1.91000       19.19700        4.18900
H          2.49000       16.99100        4.23000
H          2.79700       16.97000        2.45500
O          1.59000       19.45700        2.15000
H          0.74500       19.65400        2.54300
C          0.73900       16.96000        3.03400
H          0.65100       15.84300        3.24400
H          0.39400       17.21400        2.02500
H         -0.01900       17.47600        3.64000
H          5.38300       16.75900       -1.82700
C          4.75700       17.38200       -1.15200
C          3.40000       17.82000       -1.68300
H          4.59200       16.68600       -0.28500
H          5.35300       18.23900       -0.80800
H          2.94900       17.13300       -2.39600
H          3.43700       18.71500       -2.22500
C          2.44800       18.23000       -0.58300
C          1.06800       18.22900       -0.94100
H          2.55200       17.57200        0.27300
H          0.51900       18.59900       -0.05100
H          0.73600       17.18100       -1.02100
O          2.85400       19.52900       -0.09900
H          2.24400       19.66600        0.61500
C          0.51700       18.94400       -2.20600
H          0.79600       20.07000       -2.11700
H         -0.62300       18.68500       -2.27500
H          1.04500       18.63400       -3.16500


