%chk=C10H24O2_pair_006_009.chk
%nproc=8
%mem=8000Mb
#p opt b3lyp/6-31G**

Conformer number 068. Energy MM = 0.000 kcal/mol

0 1
H          5.20400        1.78700        6.55400
C          5.06300        0.71100        6.51400
C          5.91000       -0.04600        7.51800
H          4.06900        0.44000        6.79800
H          5.31800        0.47200        5.40700
H          5.66000       -1.15000        7.58300
H          5.78200        0.33200        8.50600
C          7.33200        0.03600        7.17500
C          8.28700       -0.69100        8.03900
H          7.44100       -0.38200        6.15400
H          7.97300       -1.77800        8.21800
H          8.28700       -0.29000        9.04700
O          7.79100        1.43400        7.03500
H          7.34600        1.86200        7.78000
C          9.78100       -0.73400        7.68000
H         10.35800        0.14300        7.88800
H          9.96400       -1.02800        6.63300
H         10.27800       -1.48700        8.27700
H          4.86300       -5.13700        8.21700
C          5.31200       -4.24200        7.72500
C          4.22500       -3.63900        6.82500
H          5.60500       -3.56700        8.59000
H          6.20800       -4.48800        7.08200
H          3.91100       -4.25900        5.98300
H          4.53000       -2.69100        6.34400
C          3.05600       -3.37400        7.61900
C          1.92600       -3.02300        6.73800
H          2.74200       -4.24800        8.14600
H          1.58100       -3.93300        6.18500
H          2.24000       -2.17900        6.05200
O          3.39400       -2.34600        8.48700
H          3.72900       -2.78000        9.32800
C          0.68900       -2.43600        7.48400
H         -0.23300       -2.43600        6.83900
H          0.77000       -1.40000        7.79500
H          0.60400       -2.97500        8.41200


