%chk=C10H24O2_pair_023_068.chk
%nproc=8
%mem=8000Mb
#p opt b3lyp/6-31G**

Conformer number 243. Energy MM = 0.000 kcal/mol

0 1
H         23.12400       16.70800       16.55100
C         23.73700       16.97000       15.66200
C         23.58600       18.37600       15.11100
H         24.78300       16.72900       15.93400
H         23.46100       16.19000       14.89900
H         24.24700       18.54000       14.30400
H         23.74600       19.14700       15.94400
C         22.29300       18.67900       14.57200
C         22.30600       19.92300       13.86100
H         21.93700       17.92500       13.80000
H         23.16300       20.02100       13.24300
H         22.47500       20.71300       14.56800
O         21.22000       18.63900       15.51300
H         20.39000       18.87000       15.09300
C         21.10500       20.22500       12.99100
H         20.14500       20.03800       13.64800
H         21.03200       19.59400       12.08900
H         21.10100       21.35700       12.73600
H         27.53800       16.26600       20.28000
C         26.99600       16.61900       19.47400
C         26.86000       15.57700       18.37600
H         27.57100       17.46500       19.12800
H         26.04200       17.10200       19.86400
H         27.87100       15.35100       18.18700
H         26.26900       15.88900       17.52800
C         26.21700       14.36900       18.88500
C         24.80500       14.43700       19.37400
H         26.85500       13.92800       19.67100
H         24.23600       14.73300       18.50800
H         24.57200       15.23100       20.10700
O         26.24000       13.31300       17.84800
H         27.16200       13.28500       17.50300
C         24.29200       13.01700       19.91900
H         24.71900       12.66400       20.85900
H         24.50400       12.23100       19.20800
H         23.20800       12.90500       20.10000


