%chk=C10H24O2_pair_050_065.chk
%nproc=8
%mem=8000Mb
#p opt b3lyp/6-31G**

Conformer number 451. Energy MM = 0.000 kcal/mol

0 1
H         14.20200       13.56400       13.91700
C         14.13800       13.81000       14.98300
C         12.81000       14.60300       15.18900
H         14.18200       12.87100       15.50300
H         15.03400       14.39900       15.26200
H         12.01200       13.83400       15.05700
H         12.68900       15.36200       14.39600
C         12.63000       15.05400       16.49700
C         11.26700       15.34200       16.89200
H         12.92800       14.25300       17.17800
H         10.55800       14.56200       16.44200
H         11.03300       16.32800       16.46400
O         13.47400       16.16900       16.71100
H         14.35600       15.77200       16.60200
C         11.22800       15.44000       18.39000
H         10.31000       15.92900       18.77100
H         11.94300       16.19900       18.75900
H         11.39400       14.46600       18.85900
H         18.59700       16.65800       14.05900
C         19.42800       16.50200       13.32600
C         19.17000       15.33400       12.40200
H         19.38500       17.47200       12.76100
H         20.41800       16.45300       13.89900
H         20.00200       15.35500       11.64300
H         18.17000       15.66100       11.95100
C         18.99000       13.94400       12.91200
C         17.91100       13.78200       13.83700
H         18.64100       13.41900       12.07600
H         17.02800       14.39900       13.59600
H         18.23400       14.20100       14.83500
O         20.16200       13.35900       13.38200
H         20.32200       13.73900       14.25200
C         17.25600       12.36700       14.08600
H         16.56100       12.53500       14.96000
H         17.86900       11.49800       14.41800
H         16.67600       12.08600       13.20600


