%chk=C10H24O2_pair_040_047.chk
%nproc=8
%mem=8000Mb
#p opt b3lyp/6-31G**

Conformer number 388. Energy MM = 0.000 kcal/mol

0 1
H         18.01100       13.71500        7.77500
C         18.96500       13.07600        7.49200
C         19.99200       13.08300        8.55600
H         18.67600       12.04700        7.28700
H         19.28900       13.56300        6.58000
H         19.58600       12.60700        9.43100
H         20.14500       14.06700        8.99500
C         21.25900       12.48900        8.22600
C         21.10000       11.11800        7.86100
H         21.63200       13.00400        7.38100
H         20.61200       11.10700        6.87000
H         20.42300       10.64300        8.56200
O         22.25200       12.70800        9.25600
H         21.91800       12.31500       10.09100
C         22.36700       10.21400        7.59900
H         23.07300       10.52400        6.84200
H         22.97300        9.96800        8.48100
H         22.03000        9.20600        7.35900
H         20.52600        6.99500        5.88800
C         20.09500        7.64100        5.11500
C         18.97300        8.50600        5.66800
H         20.90400        8.34600        4.96200
H         19.78800        7.02800        4.17500
H         19.29300        8.91300        6.59500
H         18.11200        7.82000        6.00000
C         18.30300        9.48300        4.78400
C         17.15400       10.05200        5.46800
H         19.09900       10.24700        4.60700
H         17.48200       10.61400        6.36400
H         16.53700        9.20200        5.86100
O         17.97700        8.97000        3.50000
H         17.35200        8.25800        3.65100
C         16.16200       10.91500        4.71600
H         15.38000       11.23000        5.40700
H         15.69900       10.38200        3.88500
H         16.68000       11.77600        4.28000


