%chk=C10H24O2_pair_028_095.chk
%nproc=8
%mem=8000Mb
#p opt b3lyp/6-31G**

Conformer number 295. Energy MM = 0.000 kcal/mol

0 1
H         10.04500       13.26300        3.68000
C          9.60900       14.11800        3.07600
C          8.71000       15.07300        3.94600
H         10.53200       14.69700        2.82800
H          9.20900       13.72700        2.08800
H          9.13500       15.29400        4.95400
H          7.78400       14.52900        4.18500
C          8.34300       16.37800        3.39000
C          7.67800       16.41600        2.06800
H          7.58400       16.79800        4.02600
H          6.67000       15.96200        2.13800
H          8.32200       16.02500        1.28400
O          9.45200       17.28400        3.29600
H          9.30800       18.03400        3.93100
C          7.42300       17.86800        1.71800
H          8.25300       18.34400        1.16000
H          7.29100       18.43800        2.72300
H          6.54100       18.05700        1.19200
H         12.19600       16.87700       -3.29900
C         12.44500       17.92000       -2.93900
C         11.39400       18.94000       -3.42200
H         12.69100       17.88700       -1.78800
H         13.40700       18.00000       -3.45800
H         11.26200       18.89900       -4.52000
H         11.84700       19.95300       -3.41400
C         10.09600       18.82200       -2.80900
C          9.53400       17.47500       -2.70200
H         10.14900       19.27100       -1.69700
H         10.13500       16.71800       -2.09800
H          9.38800       17.07600       -3.74700
O          9.22000       19.65200       -3.55600
H          8.74100       20.12800       -2.87000
C          8.13500       17.46000       -2.09000
H          7.83000       16.43300       -2.09200
H          7.48700       18.05800       -2.69900
H          8.19400       17.83700       -1.07300


