%chk=C10H24O2_pair_039_058.chk
%nproc=8
%mem=8000Mb
#p opt b3lyp/6-31G**

Conformer number 377. Energy MM = 0.000 kcal/mol

0 1
H         14.27000       24.12400        8.90300
C         14.36600       23.19800        8.37400
C         15.16600       22.11400        9.13900
H         13.35300       22.92100        8.17600
H         14.79100       23.55600        7.41900
H         16.17600       22.56000        9.38200
H         15.31200       21.27600        8.48000
C         14.56800       21.68900       10.40700
C         13.19900       21.21700       10.10800
H         15.10200       20.83500       10.75800
H         13.19900       20.63800        9.13700
H         12.52500       22.08900        9.97100
O         14.43300       22.63300       11.51200
H         15.30100       23.04800       11.62600
C         12.55500       20.46500       11.25300
H         11.66700       19.77600       11.03200
H         12.26000       21.05200       12.17800
H         13.21700       19.73000       11.67300
H         14.73700       17.79000        6.31100
C         15.24700       18.61500        5.79500
C         14.44400       19.96100        5.76100
H         16.24000       18.70100        6.18100
H         15.38300       18.37300        4.75100
H         15.07600       20.79200        5.32800
H         14.28000       20.17600        6.87600
C         13.23600       19.80000        4.96600
C         12.47900       21.05200        4.70800
H         13.59500       19.38300        3.96500
H         12.34700       21.71100        5.61500
H         11.51500       20.60600        4.40100
O         12.31700       18.88500        5.46100
H         12.72900       18.01000        5.21700
C         13.01200       21.91200        3.57800
H         12.33500       22.72600        3.30800
H         13.04200       21.33000        2.61600
H         14.02500       22.27700        3.74000


