%chk=C10H24O2_pair_015_045.chk
%nproc=8
%mem=8000Mb
#p opt b3lyp/6-31G**

Conformer number 163. Energy MM = 0.000 kcal/mol

0 1
H         19.97000       10.36900       18.23100
C         20.01300       11.29400       17.64300
C         21.09900       12.18800       18.12300
H         20.34700       11.08000       16.60300
H         18.97400       11.62600       17.65800
H         22.15600       11.75400       18.10600
H         20.94700       12.47800       19.19700
C         21.21300       13.46300       17.45200
C         19.99600       14.24500       17.57700
H         22.07600       14.07400       17.82100
H         19.89200       14.44500       18.69000
H         19.10300       13.74900       17.23200
O         21.39500       13.24400       16.04700
H         22.21800       12.82100       16.10300
C         20.08700       15.59300       16.90200
H         19.20300       16.22500       17.03500
H         20.29700       15.46100       15.85900
H         20.82200       16.14900       17.35100
H         18.88600        2.67900       16.54000
C         18.53000        3.70500       16.82000
C         19.28900        4.80000       16.02200
H         17.46400        3.83100       16.45800
H         18.49800        3.90300       17.93500
H         19.05700        4.69300       14.97000
H         20.36200        4.76900       16.16600
C         18.88500        6.21700       16.29900
C         19.54800        7.14000       15.41100
H         17.82400        6.34800       16.02300
H         19.16800        6.89800       14.37600
H         20.62500        6.82600       15.37500
O         18.94900        6.47900       17.70900
H         19.84900        6.26200       17.95100
C         19.31400        8.58900       15.69100
H         19.48300        8.75600       16.78500
H         18.23800        8.82600       15.44400
H         19.91300        9.30900       15.06400


