%chk=C10H24O2_pair_053_056.chk
%nproc=8
%mem=8000Mb
#p opt b3lyp/6-31G**

Conformer number 470. Energy MM = 0.000 kcal/mol

0 1
H         13.17900       14.02300        0.61300
C         12.40300       14.77600        0.95500
C         12.82500       16.18100        0.60800
H         11.41400       14.55600        0.57700
H         12.23200       14.57700        1.98700
H         12.84700       16.36200       -0.46300
H         13.77900       16.28300        1.04200
C         11.88300       17.11400        1.14400
C         12.13400       18.54500        0.92900
H         10.81500       16.86500        0.65100
H         12.16400       18.74500       -0.09100
H         13.14800       18.71100        1.45400
O         11.81900       16.86800        2.52700
H         10.90600       17.08900        2.81500
C         11.07900       19.50500        1.51800
H         10.94000       19.26500        2.56500
H         10.21600       19.48900        0.86100
H         11.46900       20.56900        1.48500
H         12.74100        9.42200       -1.07900
C         12.68000        8.63600       -0.31000
C         12.46700        9.32800        1.03200
H         11.81600        7.91700       -0.42500
H         13.64500        8.07300       -0.31500
H         13.46500        9.85000        1.38400
H         12.32100        8.57000        1.87100
C         11.37300       10.24300        1.26500
C         11.33900       10.57400        2.70500
H         11.45300       11.20900        0.73100
H         11.41300        9.68400        3.40000
H         10.42400       11.10200        2.95900
O         10.11900        9.62000        0.96600
H         10.09500        8.78500        1.45100
C         12.38500       11.62300        3.06200
H         13.44200       11.33100        2.93500
H         12.42200       11.83200        4.11000
H         12.17100       12.50000        2.47600


