%chk=C10H24O2_pair_030_097.chk
%nproc=8
%mem=8000Mb
#p opt b3lyp/6-31G**

Conformer number 315. Energy MM = 0.000 kcal/mol

0 1
H         12.95100       17.70300       10.47600
C         12.27500       17.34500        9.70700
C         10.94000       16.79900       10.15700
H         12.01400       18.13200        8.95800
H         12.72600       16.60900        9.07400
H         10.45300       16.57900        9.22800
H         10.29700       17.57300       10.63800
C         10.82200       15.63300       10.97200
C         11.39000       15.76900       12.29500
H          9.77100       15.46700       11.16300
H         12.51500       15.67000       12.17500
H         11.10500       14.87700       12.89500
O         11.38300       14.47700       10.31400
H         11.14300       13.74400       10.86300
C         11.17800       17.08800       13.05200
H         10.15200       17.39300       13.12100
H         11.64600       17.97900       12.59800
H         11.46000       16.92100       14.13700
H         15.76200       16.56800       14.49700
C         15.54100       17.19900       13.63900
C         15.68900       18.59200       14.16000
H         16.13600       16.96700       12.73600
H         14.51800       16.98900       13.36000
H         15.51700       19.29000       13.29000
H         16.77300       18.73300       14.37300
C         14.85300       19.04200       15.26000
C         14.92800       20.40700       15.77400
H         13.74500       18.99900       14.89400
H         14.29600       20.36600       16.65100
H         14.31700       21.08400       15.19000
O         14.97700       18.27100       16.45800
H         14.30700       17.59200       16.42800
C         16.28300       20.89600       16.24800
H         16.78200       20.00600       16.65100
H         16.45100       21.58300       17.09500
H         16.84400       21.22200       15.40100


