%chk=C10H24O2_pair_017_046.chk
%nproc=8
%mem=8000Mb
#p opt b3lyp/6-31G**

Conformer number 185. Energy MM = 0.000 kcal/mol

0 1
H          1.03700        5.13500       20.68900
C          1.37400        4.46800       19.81300
C          2.03100        5.29700       18.76000
H          2.01800        3.71300       20.23600
H          0.40800        3.94700       19.47300
H          2.77900        5.79600       19.33400
H          1.29200        6.02700       18.42200
C          2.55600        4.51900       17.61300
C          3.18900        5.26100       16.53600
H          3.34000        3.91200       17.99500
H          3.28700        4.57100       15.66200
H          4.17000        5.60600       16.76600
O          1.46600        3.72400       17.01800
H          1.42100        2.93500       17.49600
C          2.43100        6.45400       15.98200
H          2.38400        7.43800       16.44900
H          1.35500        6.09200       16.00300
H          2.78600        6.61100       14.97100
H         -1.93300        8.46200       20.81800
C         -2.46300        8.63300       19.91200
C         -1.80700        7.76900       18.74200
H         -3.50100        8.39800       20.11700
H         -2.26100        9.67300       19.56900
H         -0.73600        7.97000       18.72400
H         -2.13000        8.08700       17.79100
C         -2.10600        6.32600       18.88900
C         -1.58000        5.56200       17.76000
H         -1.54800        5.94000       19.80500
H         -0.53200        5.73500       17.61600
H         -2.21400        5.98000       16.86800
O         -3.43100        6.07600       18.95700
H         -3.70900        5.90700       19.87700
C         -1.88800        4.05800       17.94000
H         -2.98800        3.98500       17.99800
H         -1.57600        3.52400       18.85000
H         -1.49100        3.52200       17.05400


