%chk=C10H24O2_pair_000_076.chk
%nproc=8
%mem=8000Mb
#p opt b3lyp/6-31G**

Conformer number 011. Energy MM = 0.000 kcal/mol

0 1
H          9.65300       13.53000        9.14100
C          8.67700       13.24300        9.58800
C          8.71400       11.82800       10.24500
H          8.30800       13.94500       10.33400
H          7.92300       13.29500        8.76300
H          9.10800       11.21700        9.44200
H          7.70000       11.38700       10.49000
C          9.60000       11.64300       11.37100
C          9.01700       12.41900       12.48100
H          9.51000       10.51700       11.63400
H          7.97500       12.21500       12.75000
H          8.96700       13.49300       12.14600
O         10.90000       12.08900       11.19600
H         11.21300       11.64900       10.39700
C          9.85400       12.34100       13.78500
H          9.31100       12.90000       14.53800
H         10.90300       12.78000       13.65000
H          9.94200       11.24000       14.23600
H          7.51500       11.99200        4.51700
C          6.40400       12.17000        4.43500
C          5.75700       12.17400        5.79500
H          6.17200       13.08700        3.92900
H          6.01000       11.35400        3.83800
H          4.90300       11.52500        5.84600
H          5.45200       13.15400        5.97900
C          6.62200       11.71500        6.94100
C          7.16100       10.33400        6.99400
H          7.61400       12.33500        7.05500
H          7.43300       10.18200        8.06100
H          8.08600       10.18500        6.35400
O          5.78300       11.82600        8.08100
H          5.55000       12.70700        8.05500
C          6.25100        9.15100        6.72100
H          6.91100        8.24600        6.84300
H          5.71400        9.24300        5.75300
H          5.53800        9.04800        7.59200


