%chk=C10H24O2_pair_005_067.chk
%nproc=8
%mem=8000Mb
#p opt b3lyp/6-31G**

Conformer number 061. Energy MM = 0.000 kcal/mol

0 1
H          9.12300        0.49700       17.08600
C          9.66800        0.95400       16.26200
C         10.71100        1.95000       16.69600
H         10.15500        0.10600       15.69400
H          8.92300        1.29300       15.51100
H         11.29800        2.32100       15.83600
H         11.25900        1.46800       17.46000
C         10.11800        3.14100       17.20000
C         11.09500        4.18600       17.32100
H          9.41000        3.50200       16.40000
H         11.81900        4.21200       16.50800
H         11.66900        4.02300       18.24200
O          9.48200        3.05100       18.46600
H          8.54500        2.82600       18.32500
C         10.45600        5.61300       17.42300
H          9.86100        5.69000       18.32700
H          9.84200        5.87500       16.57400
H         11.29800        6.39300       17.37900
H          7.87500        1.16800       20.95800
C          7.07700        0.61000       20.42100
C          5.86600        1.45100       19.95500
H          7.51900        0.07100       19.55200
H          6.64100       -0.12400       21.10100
H          5.50900        2.07600       20.80700
H          5.03400        0.79300       19.86300
C          5.90700        2.26100       18.78000
C          6.02900        1.56100       17.49700
H          4.98500        2.86600       18.77900
H          5.43800        0.64900       17.37700
H          7.12100        1.23300       17.35000
O          7.07200        3.11600       18.88400
H          6.93100        3.44400       19.73000
C          5.74500        2.52400       16.37900
H          5.70900        2.22600       15.35200
H          6.50300        3.30800       16.44900
H          4.77500        2.95900       16.58500


