%chk=C10H24O2_pair_003_004.chk
%nproc=8
%mem=8000Mb
#p opt b3lyp/6-31G**

Conformer number 036. Energy MM = 0.000 kcal/mol

0 1
H         19.99400        1.66500       12.36000
C         19.77900        2.69000       12.56500
C         18.94600        3.30900       11.42700
H         19.30200        2.74700       13.54400
H         20.75500        3.22300       12.63000
H         19.64000        3.62700       10.63900
H         18.38500        4.15800       11.81700
C         18.00700        2.38600       10.86000
C         17.32400        2.92900        9.74000
H         18.60900        1.47200       10.55400
H         18.05500        3.38700        9.14300
H         16.54600        3.63600       10.08700
O         17.03800        2.13600       11.83500
H         16.69600        3.01900       12.02500
C         16.72300        1.91300        8.73300
H         16.10000        2.45200        7.98900
H         16.01800        1.24600        9.23600
H         17.52900        1.31400        8.13500
H         17.94100       -3.15200        5.92100
C         17.92600       -2.15100        6.41200
C         18.84500       -1.04900        5.80800
H         16.85500       -1.85000        6.36000
H         18.15400       -2.37000        7.47900
H         18.69300       -0.09000        6.27100
H         18.40700       -0.82900        4.75500
C         20.24900       -1.42300        5.71800
C         21.16700       -0.45600        5.10300
H         20.65900       -1.45000        6.75300
H         22.18200       -0.84200        5.14700
H         21.15700        0.43900        5.75800
O         20.47700       -2.70900        5.15900
H         19.95400       -2.65000        4.31000
C         20.90200       -0.04100        3.67100
H         21.52700        0.79700        3.29300
H         19.88900        0.34800        3.50200
H         21.07800       -0.90500        3.01100


