%chk=C10H24O2_pair_037_040.chk
%nproc=8
%mem=8000Mb
#p opt b3lyp/6-31G**

Conformer number 362. Energy MM = 0.000 kcal/mol

0 1
H          3.78300       12.20400       10.95800
C          2.73000       12.39700       10.62200
C          2.04100       11.20800       10.07500
H          2.26200       12.70500       11.56600
H          2.76800       13.32500        9.91800
H          0.94500       11.32100        9.91300
H          2.17500       10.40200       10.85800
C          2.68400       10.78900        8.85900
C          1.93400        9.79700        8.09100
H          2.78400       11.61200        8.15800
H          1.78000        8.89200        8.68900
H          0.94200       10.24900        7.66700
O          4.05700       10.40000        9.18600
H          4.63500       10.95400        8.62400
C          2.74100        9.28000        6.89300
H          3.00100       10.13000        6.20700
H          2.00500        8.64400        6.34500
H          3.62700        8.63400        7.11200
H         -6.45100       13.71500        7.77500
C         -5.49700       13.07600        7.49200
C         -4.47000       13.08300        8.55600
H         -5.78600       12.04700        7.28700
H         -5.17300       13.56300        6.58000
H         -4.87600       12.60700        9.43100
H         -4.31700       14.06700        8.99500
C         -3.20300       12.48900        8.22600
C         -3.36200       11.11800        7.86100
H         -2.83000       13.00400        7.38100
H         -3.85000       11.10700        6.87000
H         -4.03900       10.64300        8.56200
O         -2.21000       12.70800        9.25600
H         -2.54400       12.31500       10.09100
C         -2.09500       10.21400        7.59900
H         -1.38900       10.52400        6.84200
H         -1.48900        9.96800        8.48100
H         -2.43200        9.20600        7.35900


