%chk=C10H24O2_pair_016_090.chk
%nproc=8
%mem=8000Mb
#p opt b3lyp/6-31G**

Conformer number 179. Energy MM = 0.000 kcal/mol

0 1
H          3.44600        4.42600        3.84400
C          3.06100        5.46500        3.75600
C          3.70400        6.12700        2.53100
H          1.97700        5.46400        3.75800
H          3.46100        5.94700        4.65200
H          3.53300        5.50700        1.60700
H          4.86200        6.18300        2.72200
C          3.24200        7.48400        2.22000
C          3.16700        8.32600        3.40800
H          3.85400        7.94600        1.41100
H          4.08500        8.29200        4.01100
H          2.32800        8.02700        3.98600
O          1.90600        7.49000        1.61500
H          1.41000        6.76000        2.00300
C          3.02400        9.78700        2.98900
H          3.12200       10.61300        3.76000
H          2.15000        9.93500        2.30000
H          3.90000       10.08800        2.32100
H          7.76300        6.73900        0.20300
C          6.97100        7.06500        0.90800
C          7.34000        7.97100        2.12400
H          6.25000        7.63600        0.35200
H          6.37900        6.10800        1.23400
H          6.43700        7.99000        2.81900
H          7.37500        9.06300        1.92200
C          8.42200        7.51100        2.88700
C          8.64500        8.17500        4.14200
H          8.04100        6.52800        3.17200
H          7.62400        8.21200        4.71600
H          8.96900        9.20000        3.90400
O          9.61700        7.31600        2.16500
H          9.91400        6.51900        2.62300
C          9.63200        7.45500        5.12100
H         10.67400        7.63600        4.81900
H          9.35800        6.44500        5.16200
H          9.41100        7.80800        6.11000


