%chk=C10H24O2_pair_003_033.chk
%nproc=8
%mem=8000Mb
#p opt b3lyp/6-31G**

Conformer number 040. Energy MM = 0.000 kcal/mol

0 1
H         19.99400        1.66500       12.36000
C         19.77900        2.69000       12.56500
C         18.94600        3.30900       11.42700
H         19.30200        2.74700       13.54400
H         20.75500        3.22300       12.63000
H         19.64000        3.62700       10.63900
H         18.38500        4.15800       11.81700
C         18.00700        2.38600       10.86000
C         17.32400        2.92900        9.74000
H         18.60900        1.47200       10.55400
H         18.05500        3.38700        9.14300
H         16.54600        3.63600       10.08700
O         17.03800        2.13600       11.83500
H         16.69600        3.01900       12.02500
C         16.72300        1.91300        8.73300
H         16.10000        2.45200        7.98900
H         16.01800        1.24600        9.23600
H         17.52900        1.31400        8.13500
H         14.06500        2.54300        9.94500
C         13.09600        2.48300        9.50300
C         12.06700        3.32400       10.10500
H         13.23200        2.72000        8.45400
H         12.75200        1.43400        9.52400
H         11.14600        3.11500        9.58300
H         12.34100        4.37200        9.91600
C         11.87500        3.13700       11.52900
C         11.40200        4.43500       12.08700
H         11.07600        2.39100       11.78000
H         10.78700        4.99100       11.41900
H         12.33900        4.91500       12.20600
O         13.14900        2.76100       12.21000
H         13.09700        1.74800       12.29100
C         10.76300        4.10600       13.43100
H          9.83500        3.58800       13.28900
H         10.56500        4.84400       14.20400
H         11.31800        3.33100       13.95100


