%chk=C10H24O2_pair_013_035.chk
%nproc=8
%mem=8000Mb
#p opt b3lyp/6-31G**

Conformer number 143. Energy MM = 0.000 kcal/mol

0 1
H         21.36300       25.24900       19.49200
C         20.69700       25.34300       18.68700
C         20.71100       24.24100       17.63500
H         19.73400       25.30300       19.22800
H         20.75900       26.30900       18.14900
H         19.80500       24.50800       17.16400
H         20.63800       23.22600       18.04000
C         21.85300       24.33100       16.73200
C         21.69900       23.52100       15.42800
H         21.89200       25.36700       16.46300
H         20.99200       24.02300       14.74600
H         21.33100       22.43900       15.63700
O         23.10600       24.13400       17.38400
H         23.00600       23.18700       17.53000
C         23.00700       23.35000       14.68400
H         22.84800       22.98200       13.70600
H         23.65400       22.62700       15.11100
H         23.56700       24.30000       14.62500
H         26.86100       25.84400       21.67800
C         26.15400       25.59600       20.84400
C         26.84200       25.46500       19.56200
H         25.56000       24.72900       21.13000
H         25.50500       26.41300       20.89400
H         27.58100       24.63200       19.76600
H         27.40700       26.41400       19.26800
C         26.08500       25.09900       18.35200
C         26.90000       24.96700       17.19300
H         25.67800       24.11000       18.55200
H         27.62900       24.19700       17.49900
H         27.45600       25.97200       17.08500
O         24.95800       25.95200       18.24000
H         24.36700       25.40700       17.79000
C         26.28100       24.63000       15.89000
H         27.09100       24.62100       15.17800
H         25.54200       25.43400       15.70200
H         25.70800       23.64200       15.81600


