%chk=C10H24O2_pair_038_074.chk
%nproc=8
%mem=8000Mb
#p opt b3lyp/6-31G**

Conformer number 375. Energy MM = 0.000 kcal/mol

0 1
H          5.92600        5.14200       14.41800
C          6.73900        5.37500       13.63200
C          7.94900        6.10000       14.27400
H          7.02800        4.49900       13.05400
H          6.21000        6.06500       12.94900
H          8.78100        6.08600       13.57900
H          8.17400        5.72300       15.32000
C          7.65200        7.48500       14.58600
C          8.55500        8.32700       15.40500
H          7.60000        8.00800       13.63600
H          9.60200        8.29900       15.07500
H          8.54100        7.95900       16.41900
O          6.39200        7.57900       15.23900
H          5.68800        7.08200       14.79900
C          8.07000        9.74700       15.30300
H          7.20900       10.00400       15.89800
H          7.83300        9.94000       14.22100
H          8.78000       10.51300       15.55600
H          5.80000       14.70800       13.78100
C          4.77100       14.52600       13.45200
C          4.02800       13.95100       14.59500
H          4.40600       15.50100       13.09600
H          4.90600       13.76000       12.60400
H          3.11200       13.48300       14.23300
H          3.63300       14.69700       15.29600
C          4.72100       12.98900       15.45600
C          5.46300       11.84900       14.89700
H          5.41100       13.64300       16.03900
H          5.85400       11.29600       15.76700
H          6.43500       12.13900       14.31000
O          3.79800       12.54400       16.44800
H          4.37000       12.14700       17.12000
C          4.60700       10.87800       14.22000
H          3.53800       10.99100       14.50500
H          4.90000        9.82000       14.39900
H          4.66300       11.15600       13.17200


