%chk=C10H24O2_pair_030_093.chk
%nproc=8
%mem=8000Mb
#p opt b3lyp/6-31G**

Conformer number 314. Energy MM = 0.000 kcal/mol

0 1
H         12.95100       17.70300       10.47600
C         12.27500       17.34500        9.70700
C         10.94000       16.79900       10.15700
H         12.01400       18.13200        8.95800
H         12.72600       16.60900        9.07400
H         10.45300       16.57900        9.22800
H         10.29700       17.57300       10.63800
C         10.82200       15.63300       10.97200
C         11.39000       15.76900       12.29500
H          9.77100       15.46700       11.16300
H         12.51500       15.67000       12.17500
H         11.10500       14.87700       12.89500
O         11.38300       14.47700       10.31400
H         11.14300       13.74400       10.86300
C         11.17800       17.08800       13.05200
H         10.15200       17.39300       13.12100
H         11.64600       17.97900       12.59800
H         11.46000       16.92100       14.13700
H          8.95700       19.16500       11.97900
C          8.04900       19.78400       11.76400
C          7.96500       20.85700       12.88300
H          8.19600       20.35600       10.90800
H          7.26900       19.05200       11.57000
H          8.71900       21.61100       12.71500
H          8.14400       20.42200       13.91300
C          6.74100       21.64100       12.92200
C          6.70700       22.69100       13.95900
H          6.55300       22.03600       11.93000
H          7.71800       23.14100       14.17300
H          6.36900       22.21900       14.86600
O          5.60000       20.75100       13.09200
H          5.51700       20.56900       14.00100
C          5.61200       23.77200       13.70400
H          5.43900       24.46900       14.58000
H          4.68200       23.24500       13.54800
H          5.71900       24.46900       12.87400


