%chk=C10H24O2_pair_016_027.chk
%nproc=8
%mem=8000Mb
#p opt b3lyp/6-31G**

Conformer number 170. Energy MM = 0.000 kcal/mol

0 1
H          3.44600        4.42600        3.84400
C          3.06100        5.46500        3.75600
C          3.70400        6.12700        2.53100
H          1.97700        5.46400        3.75800
H          3.46100        5.94700        4.65200
H          3.53300        5.50700        1.60700
H          4.86200        6.18300        2.72200
C          3.24200        7.48400        2.22000
C          3.16700        8.32600        3.40800
H          3.85400        7.94600        1.41100
H          4.08500        8.29200        4.01100
H          2.32800        8.02700        3.98600
O          1.90600        7.49000        1.61500
H          1.41000        6.76000        2.00300
C          3.02400        9.78700        2.98900
H          3.12200       10.61300        3.76000
H          2.15000        9.93500        2.30000
H          3.90000       10.08800        2.32100
H         -3.88800        4.45600        5.43800
C         -3.10900        3.93400        4.85200
C         -1.86300        3.90600        5.78200
H         -3.47000        2.89000        4.54800
H         -2.81000        4.54200        3.95100
H         -2.02200        3.46500        6.74700
H         -1.59800        4.97300        5.89300
C         -0.72900        3.18500        5.17800
C          0.38900        2.90300        6.10300
H         -1.09500        2.14800        4.92500
H         -0.05500        2.19700        6.84400
H          0.80000        3.75400        6.71700
O         -0.38900        3.95800        3.96800
H          0.18700        3.51800        3.35900
C          1.62300        2.24900        5.38400
H          1.87500        2.89400        4.58800
H          1.22200        1.33300        4.98900
H          2.42500        2.09800        5.99900


