%chk=C10H24O2_pair_037_071.chk
%nproc=8
%mem=8000Mb
#p opt b3lyp/6-31G**

Conformer number 366. Energy MM = 0.000 kcal/mol

0 1
H          3.78300       12.20400       10.95800
C          2.73000       12.39700       10.62200
C          2.04100       11.20800       10.07500
H          2.26200       12.70500       11.56600
H          2.76800       13.32500        9.91800
H          0.94500       11.32100        9.91300
H          2.17500       10.40200       10.85800
C          2.68400       10.78900        8.85900
C          1.93400        9.79700        8.09100
H          2.78400       11.61200        8.15800
H          1.78000        8.89200        8.68900
H          0.94200       10.24900        7.66700
O          4.05700       10.40000        9.18600
H          4.63500       10.95400        8.62400
C          2.74100        9.28000        6.89300
H          3.00100       10.13000        6.20700
H          2.00500        8.64400        6.34500
H          3.62700        8.63400        7.11200
H          2.20300        7.36400       12.83200
C          2.89400        7.21000       11.92200
C          4.22900        8.08400       11.92200
H          3.08500        6.08800       11.99900
H          2.27200        7.45600       10.94900
H          4.76600        7.93900       12.86200
H          3.94800        9.12500       12.05600
C          5.23600        7.82300       10.88600
C          6.34500        8.73000       11.03400
H          5.60800        6.76500       11.11100
H          6.45800        8.86900       12.08800
H          6.13400        9.70100       10.72600
O          4.71400        7.73300        9.57000
H          4.28900        8.60300        9.41100
C          7.58800        8.21700       10.28000
H          7.38900        8.28600        9.20400
H          7.98600        7.20300       10.55500
H          8.34800        9.02100       10.51400


