%chk=C10H24O2_pair_035_046.chk
%nproc=8
%mem=8000Mb
#p opt b3lyp/6-31G**

Conformer number 344. Energy MM = 0.000 kcal/mol

0 1
H          2.39900        1.38200       21.67800
C          1.69200        1.13400       20.84400
C          2.38000        1.00300       19.56200
H          1.09800        0.26700       21.13000
H          1.04300        1.95100       20.89400
H          3.11900        0.17000       19.76600
H          2.94500        1.95200       19.26800
C          1.62300        0.63700       18.35200
C          2.43800        0.50500       17.19300
H          1.21600       -0.35200       18.55200
H          3.16700       -0.26500       17.49900
H          2.99400        1.51000       17.08500
O          0.49600        1.49000       18.24000
H         -0.09500        0.94500       17.79000
C          1.81900        0.16800       15.89000
H          2.62900        0.15900       15.17800
H          1.08000        0.97200       15.70200
H          1.24600       -0.82000       15.81600
H         -1.93300        8.46200       20.81800
C         -2.46300        8.63300       19.91200
C         -1.80700        7.76900       18.74200
H         -3.50100        8.39800       20.11700
H         -2.26100        9.67300       19.56900
H         -0.73600        7.97000       18.72400
H         -2.13000        8.08700       17.79100
C         -2.10600        6.32600       18.88900
C         -1.58000        5.56200       17.76000
H         -1.54800        5.94000       19.80500
H         -0.53200        5.73500       17.61600
H         -2.21400        5.98000       16.86800
O         -3.43100        6.07600       18.95700
H         -3.70900        5.90700       19.87700
C         -1.88800        4.05800       17.94000
H         -2.98800        3.98500       17.99800
H         -1.57600        3.52400       18.85000
H         -1.49100        3.52200       17.05400


