%chk=C10H24O2_pair_009_010.chk
%nproc=8
%mem=8000Mb
#p opt b3lyp/6-31G**

Conformer number 100. Energy MM = 0.000 kcal/mol

0 1
H          4.86300       19.32500        8.21700
C          5.31200       20.22000        7.72500
C          4.22500       20.82300        6.82500
H          5.60500       20.89500        8.59000
H          6.20800       19.97400        7.08200
H          3.91100       20.20300        5.98300
H          4.53000       21.77100        6.34400
C          3.05600       21.08800        7.61900
C          1.92600       21.43900        6.73800
H          2.74200       20.21400        8.14600
H          1.58100       20.52900        6.18500
H          2.24000       22.28300        6.05200
O          3.39400       22.11600        8.48700
H          3.72900       21.68200        9.32800
C          0.68900       22.02600        7.48400
H         -0.23300       22.02600        6.83900
H          0.77000       23.06200        7.79500
H          0.60400       21.48700        8.41200
H          2.58800       28.37700       12.36700
C          3.48600       27.74000       12.62100
C          2.95500       26.28100       12.82900
H          4.20300       27.85400       11.73800
H          3.94300       28.07000       13.49500
H          2.19300       26.18900       13.58700
H          3.76800       25.70300       13.05400
C          2.23300       25.80600       11.65200
C          3.01600       25.65200       10.40400
H          1.81900       24.82200       11.96000
H          3.79800       24.84600       10.58700
H          3.57100       26.55900       10.18200
O          1.07900       26.64100       11.60000
H          0.47600       26.15500       10.96100
C          2.22500       25.18800        9.17300
H          1.40700       25.90900        8.92900
H          1.91900       24.17600        9.25600
H          2.87400       25.09600        8.34300


