%chk=C10H24O2_pair_004_066.chk
%nproc=8
%mem=8000Mb
#p opt b3lyp/6-31G**

Conformer number 053. Energy MM = 0.000 kcal/mol

0 1
H         17.94100       21.31000        5.92100
C         17.92600       22.31100        6.41200
C         18.84500       23.41300        5.80800
H         16.85500       22.61200        6.36000
H         18.15400       22.09200        7.47900
H         18.69300       24.37200        6.27100
H         18.40700       23.63300        4.75500
C         20.24900       23.03900        5.71800
C         21.16700       24.00600        5.10300
H         20.65900       23.01200        6.75300
H         22.18200       23.62000        5.14700
H         21.15700       24.90100        5.75800
O         20.47700       21.75300        5.15900
H         19.95400       21.81200        4.31000
C         20.90200       24.42100        3.67100
H         21.52700       25.25900        3.29300
H         19.88900       24.81000        3.50200
H         21.07800       23.55700        3.01100
H         13.19000       24.55400        5.16800
C         14.04300       25.25200        5.36700
C         14.46200       26.00200        4.11500
H         13.73900       25.83300        6.28600
H         15.03900       24.73900        5.77500
H         13.69400       26.72100        3.71100
H         14.69700       25.29100        3.24000
C         15.67300       26.76700        4.38200
C         16.90900       26.05000        4.66000
H         15.81300       27.31400        3.46400
H         17.11000       25.21300        3.94800
H         16.81700       25.42500        5.55300
O         15.24700       27.78500        5.28800
H         15.04600       27.26400        6.11200
C         18.13800       27.00300        4.82500
H         18.35500       27.13600        5.88100
H         18.12000       27.98800        4.35800
H         19.08700       26.52900        4.50600


