%chk=C10H24O2_pair_039_070.chk
%nproc=8
%mem=8000Mb
#p opt b3lyp/6-31G**

Conformer number 380. Energy MM = 0.000 kcal/mol

0 1
H         14.27000       24.12400        8.90300
C         14.36600       23.19800        8.37400
C         15.16600       22.11400        9.13900
H         13.35300       22.92100        8.17600
H         14.79100       23.55600        7.41900
H         16.17600       22.56000        9.38200
H         15.31200       21.27600        8.48000
C         14.56800       21.68900       10.40700
C         13.19900       21.21700       10.10800
H         15.10200       20.83500       10.75800
H         13.19900       20.63800        9.13700
H         12.52500       22.08900        9.97100
O         14.43300       22.63300       11.51200
H         15.30100       23.04800       11.62600
C         12.55500       20.46500       11.25300
H         11.66700       19.77600       11.03200
H         12.26000       21.05200       12.17800
H         13.21700       19.73000       11.67300
H          9.33800       22.45200       19.03400
C          8.62800       22.05300       18.40100
C          9.21200       21.34100       17.16200
H          8.02300       21.44100       19.05000
H          8.01800       22.84000       17.96500
H          9.89100       22.05500       16.64500
H          8.42500       21.18400       16.37900
C          9.95900       20.09500       17.31800
C         10.10000       19.60500       15.94800
H         10.96600       20.17300       17.72400
H          9.08900       19.38900       15.52300
H         10.51500       18.60500       16.05400
O          9.25200       19.17200       18.14000
H          9.32700       19.52900       19.02200
C         10.90400       20.40200       14.94000
H         11.07500       19.80100       14.00500
H         11.92600       20.62400       15.35000
H         10.37100       21.34200       14.68200


