%chk=C10H24O2_pair_006_018.chk
%nproc=8
%mem=8000Mb
#p opt b3lyp/6-31G**

Conformer number 070. Energy MM = 0.000 kcal/mol

0 1
H          5.20400        1.78700        6.55400
C          5.06300        0.71100        6.51400
C          5.91000       -0.04600        7.51800
H          4.06900        0.44000        6.79800
H          5.31800        0.47200        5.40700
H          5.66000       -1.15000        7.58300
H          5.78200        0.33200        8.50600
C          7.33200        0.03600        7.17500
C          8.28700       -0.69100        8.03900
H          7.44100       -0.38200        6.15400
H          7.97300       -1.77800        8.21800
H          8.28700       -0.29000        9.04700
O          7.79100        1.43400        7.03500
H          7.34600        1.86200        7.78000
C          9.78100       -0.73400        7.68000
H         10.35800        0.14300        7.88800
H          9.96400       -1.02800        6.63300
H         10.27800       -1.48700        8.27700
H          8.16400        4.53300        7.77200
C          8.56600        4.79700        8.80100
C          8.47200        3.69400        9.84000
H          9.71200        4.99900        8.74500
H          8.11100        5.71800        9.11300
H          8.86600        4.12100       10.77900
H          9.04300        2.80100        9.44800
C          7.08900        3.29600       10.15100
C          6.94900        2.08300       10.98800
H          6.56200        4.11600       10.69600
H          7.17100        1.17700       10.32400
H          5.87900        1.93500       11.24400
O          6.45400        2.93800        8.93300
H          6.31300        3.72200        8.41200
C          7.71000        1.99200       12.33300
H          7.24300        2.56300       13.17200
H          8.73700        2.29100       12.18000
H          7.81700        0.95700       12.66500


