%chk=C10H24O2_pair_004_085.chk
%nproc=8
%mem=8000Mb
#p opt b3lyp/6-31G**

Conformer number 054. Energy MM = 0.000 kcal/mol

0 1
H         17.94100       21.31000        5.92100
C         17.92600       22.31100        6.41200
C         18.84500       23.41300        5.80800
H         16.85500       22.61200        6.36000
H         18.15400       22.09200        7.47900
H         18.69300       24.37200        6.27100
H         18.40700       23.63300        4.75500
C         20.24900       23.03900        5.71800
C         21.16700       24.00600        5.10300
H         20.65900       23.01200        6.75300
H         22.18200       23.62000        5.14700
H         21.15700       24.90100        5.75800
O         20.47700       21.75300        5.15900
H         19.95400       21.81200        4.31000
C         20.90200       24.42100        3.67100
H         21.52700       25.25900        3.29300
H         19.88900       24.81000        3.50200
H         21.07800       23.55700        3.01100
H         18.01800       15.73400        5.93300
C         18.51600       16.47900        6.62200
C         17.86100       16.73700        8.03000
H         19.58700       16.41300        6.82100
H         18.30600       17.43100        6.01700
H         17.81000       15.82700        8.68200
H         16.80800       16.85300        7.65500
C         18.34400       17.92700        8.70600
C         17.81800       18.17400       10.01100
H         19.42400       17.71700        8.90500
H         18.31200       19.01500       10.57900
H         18.06700       17.30600       10.64800
O         18.15500       19.01200        7.89700
H         18.94600       19.22700        7.43200
C         16.29900       18.20500       10.04900
H         15.87400       18.86800        9.23200
H         15.95200       18.68300       11.05900
H         15.85900       17.25500        9.93800


