%chk=C10H24O2_pair_001_062.chk
%nproc=8
%mem=8000Mb
#p opt b3lyp/6-31G**

Conformer number 017. Energy MM = 0.000 kcal/mol

0 1
H         15.44800       12.97300       17.13200
C         15.79600       12.90600       18.11800
C         15.40400       14.17100       18.92200
H         15.14500       12.12200       18.50300
H         16.78800       12.61400       18.20000
H         15.60000       13.89900       19.98900
H         14.31100       14.39400       18.79000
C         16.11100       15.32100       18.49100
C         15.84500       16.63600       19.19500
H         17.19700       15.07300       18.62700
H         15.78500       16.48600       20.25100
H         14.85000       17.02100       18.92300
O         15.97100       15.61000       17.10900
H         16.32800       16.49800       16.89100
C         17.04400       17.72700       19.04200
H         17.03600       18.57200       19.65100
H         17.07300       18.10200       18.03400
H         17.95000       17.14600       19.34800
H         19.03600       19.39800       17.00600
C         19.34700       20.33400       17.52400
C         19.86200       20.01800       18.90100
H         19.97900       20.96200       16.87400
H         18.39100       20.90900       17.57700
H         19.08400       19.66800       19.61200
H         20.30400       20.89200       19.33300
C         20.85300       18.90500       18.87800
C         21.44200       18.41700       20.09800
H         20.23600       18.02400       18.46700
H         20.57200       18.09400       20.79200
H         21.91200       19.35400       20.55800
O         21.90600       19.34700       18.01900
H         21.75700       19.07700       17.13000
C         22.39500       17.18400       19.92200
H         22.88400       17.01300       20.90400
H         23.11000       17.35800       19.14000
H         21.73000       16.28900       19.64400


