%chk=C10H24O2_pair_036_054.chk
%nproc=8
%mem=8000Mb
#p opt b3lyp/6-31G**

Conformer number 354. Energy MM = 0.000 kcal/mol

0 1
H         15.86800        5.45700       23.97600
C         15.07300        5.46000       23.20900
C         14.92300        4.13900       22.44600
H         14.09800        5.72200       23.64200
H         15.35700        6.31500       22.60900
H         15.70300        4.03600       21.65500
H         14.00500        4.24700       21.84700
C         14.81000        2.90600       23.25200
C         15.87400        2.65400       24.29300
H         13.84300        3.03300       23.78200
H         15.58400        3.37800       25.05700
H         16.86300        2.96200       23.89900
O         14.63600        1.84300       22.33800
H         14.35400        1.08500       22.86200
C         15.93600        1.29000       24.81600
H         14.92700        0.96600       25.15800
H         16.70600        1.04400       25.53500
H         16.14000        0.63500       23.92100
H         22.93300        5.63100       22.16200
C         22.98900        4.55000       22.37700
C         21.69700        3.95800       21.76900
H         23.87800        4.28700       21.84800
H         23.12300        4.44200       23.48900
H         21.76600        2.91500       22.03500
H         21.78900        4.00300       20.63200
C         20.48900        4.66400       22.19300
C         19.24300        4.01100       21.81300
H         20.49300        4.79200       23.38800
H         18.36400        4.52300       22.22100
H         19.13200        3.05100       22.32700
O         20.43200        6.00800       21.65700
H         19.60900        6.41500       21.97900
C         19.02900        3.81600       20.22200
H         18.68900        4.73600       19.69400
H         18.16800        3.04800       20.06000
H         19.93400        3.46100       19.72000


