%chk=C10H24O2_pair_047_060.chk
%nproc=8
%mem=8000Mb
#p opt b3lyp/6-31G**

Conformer number 437. Energy MM = 0.000 kcal/mol

0 1
H         20.52600        6.99500        5.88800
C         20.09500        7.64100        5.11500
C         18.97300        8.50600        5.66800
H         20.90400        8.34600        4.96200
H         19.78800        7.02800        4.17500
H         19.29300        8.91300        6.59500
H         18.11200        7.82000        6.00000
C         18.30300        9.48300        4.78400
C         17.15400       10.05200        5.46800
H         19.09900       10.24700        4.60700
H         17.48200       10.61400        6.36400
H         16.53700        9.20200        5.86100
O         17.97700        8.97000        3.50000
H         17.35200        8.25800        3.65100
C         16.16200       10.91500        4.71600
H         15.38000       11.23000        5.40700
H         15.69900       10.38200        3.88500
H         16.68000       11.77600        4.28000
H         19.28800        5.79900        9.92400
C         19.87400        6.62400        9.54300
C         21.19400        6.23900        8.88700
H         19.25300        7.06100        8.75600
H         19.97800        7.41400       10.33700
H         21.46400        7.15200        8.29400
H         20.91400        5.46300        8.12600
C         22.36400        5.81500        9.64100
C         23.51500        5.39500        8.81600
H         22.67700        6.68400       10.28000
H         23.22200        4.71800        8.00300
H         24.23300        4.84100        9.45700
O         21.96500        4.73800       10.45500
H         22.65900        4.79400       11.15800
C         24.34800        6.54600        8.25100
H         23.78600        7.22000        7.63900
H         25.12700        6.21400        7.62800
H         24.87100        7.18400        8.96000


