%chk=C10H24O2_pair_051_059.chk
%nproc=8
%mem=8000Mb
#p opt b3lyp/6-31G**

Conformer number 458. Energy MM = 0.000 kcal/mol

0 1
H         22.09300       20.56200       -1.02000
C         22.78300       20.69300       -0.18600
C         22.08300       20.98500        1.15400
H         23.24200       19.71700       -0.14800
H         23.60600       21.44400       -0.46100
H         21.33500       20.22000        1.32600
H         21.59900       21.95000        1.19400
C         22.95600       21.05600        2.40700
C         24.00600       22.07800        2.33000
H         22.37100       21.47100        3.28200
H         23.48200       23.02900        2.18300
H         24.82000       21.92000        1.58700
O         23.51800       19.80500        2.82400
H         22.80500       19.20700        2.90400
C         24.75600       22.20900        3.73100
H         25.34700       23.13900        3.75900
H         25.45900       21.32800        3.93500
H         24.09600       22.47200        4.59000
H         30.53300       19.73600       -3.16800
C         29.94400       20.32900       -3.91300
C         29.57600       21.74500       -3.32300
H         30.59300       20.53600       -4.79200
H         29.05000       19.74500       -4.33400
H         29.18700       22.48200       -4.08600
H         30.40500       22.19700       -2.85700
C         28.69400       21.46900       -2.19400
C         27.90900       22.67800       -1.88100
H         27.83400       20.84200       -2.64000
H         27.27100       23.02400       -2.78800
H         28.61300       23.50700       -1.73900
O         29.37500       20.90000       -1.09200
H         28.66300       20.43800       -0.55500
C         26.85400       22.42000       -0.79400
H         26.19200       21.59100       -1.13900
H         26.47100       23.39400       -0.50100
H         27.41300       22.15600        0.19500


