%chk=C10H24O2_pair_047_078.chk
%nproc=8
%mem=8000Mb
#p opt b3lyp/6-31G**

Conformer number 439. Energy MM = 0.000 kcal/mol

0 1
H         20.52600        6.99500        5.88800
C         20.09500        7.64100        5.11500
C         18.97300        8.50600        5.66800
H         20.90400        8.34600        4.96200
H         19.78800        7.02800        4.17500
H         19.29300        8.91300        6.59500
H         18.11200        7.82000        6.00000
C         18.30300        9.48300        4.78400
C         17.15400       10.05200        5.46800
H         19.09900       10.24700        4.60700
H         17.48200       10.61400        6.36400
H         16.53700        9.20200        5.86100
O         17.97700        8.97000        3.50000
H         17.35200        8.25800        3.65100
C         16.16200       10.91500        4.71600
H         15.38000       11.23000        5.40700
H         15.69900       10.38200        3.88500
H         16.68000       11.77600        4.28000
H         17.02100        4.41500        1.84800
C         17.49500        5.40600        1.85900
C         16.41200        6.53400        1.91100
H         18.21200        5.56500        2.68000
H         18.07600        5.40900        0.89700
H         15.62400        6.32500        1.10900
H         16.87000        7.52600        1.78100
C         15.58300        6.64100        3.15200
C         14.42800        7.50300        2.97600
H         15.19600        5.64200        3.34200
H         13.71000        6.99200        2.23200
H         14.72200        8.41900        2.52500
O         16.43400        6.90300        4.25600
H         16.00500        6.70300        5.07300
C         13.72700        7.88400        4.28100
H         12.98100        8.69500        4.14000
H         14.41500        8.19800        5.06700
H         13.20100        6.98000        4.59800


