%chk=C10H24O2_pair_083_095.chk
%nproc=8
%mem=8000Mb
#p opt b3lyp/6-31G**

Conformer number 589. Energy MM = 0.000 kcal/mol

0 1
H          7.92700       16.04000       18.90300
C          7.12300       16.78700       19.18000
C          6.08900       16.75100       18.09400
H          6.67500       16.56500       20.14300
H          7.59400       17.78400       19.24100
H          5.25700       17.52100       18.29000
H          5.57800       15.75700       18.01600
C          6.74300       17.08900       16.78900
C          7.74900       16.14800       16.24200
H          6.04400       17.06700       15.96700
H          7.09400       15.17100       16.13800
H          8.53000       15.84400       16.89900
O          7.13600       18.49500       16.78600
H          7.76900       18.47100       17.53300
C          8.24500       16.60600       14.84300
H          9.06300       16.08400       14.54700
H          8.49500       17.66200       14.94300
H          7.52400       16.52300       14.07600
H         12.19600       16.87700       21.16300
C         12.44500       17.92000       21.52300
C         11.39400       18.94000       21.04000
H         12.69100       17.88700       22.67400
H         13.40700       18.00000       21.00400
H         11.26200       18.89900       19.94200
H         11.84700       19.95300       21.04800
C         10.09600       18.82200       21.65300
C          9.53400       17.47500       21.76000
H         10.14900       19.27100       22.76500
H         10.13500       16.71800       22.36400
H          9.38800       17.07600       20.71500
O          9.22000       19.65200       20.90600
H          8.74100       20.12800       21.59200
C          8.13500       17.46000       22.37200
H          7.83000       16.43300       22.37000
H          7.48700       18.05800       21.76300
H          8.19400       17.83700       23.38900


