%chk=C10H24O2_pair_013_021.chk
%nproc=8
%mem=8000Mb
#p opt b3lyp/6-31G**

Conformer number 141. Energy MM = 0.000 kcal/mol

0 1
H         21.36300       25.24900       19.49200
C         20.69700       25.34300       18.68700
C         20.71100       24.24100       17.63500
H         19.73400       25.30300       19.22800
H         20.75900       26.30900       18.14900
H         19.80500       24.50800       17.16400
H         20.63800       23.22600       18.04000
C         21.85300       24.33100       16.73200
C         21.69900       23.52100       15.42800
H         21.89200       25.36700       16.46300
H         20.99200       24.02300       14.74600
H         21.33100       22.43900       15.63700
O         23.10600       24.13400       17.38400
H         23.00600       23.18700       17.53000
C         23.00700       23.35000       14.68400
H         22.84800       22.98200       13.70600
H         23.65400       22.62700       15.11100
H         23.56700       24.30000       14.62500
H         25.03800       27.52600       14.60200
C         24.04000       27.40600       14.35300
C         23.41800       28.75800       14.16800
H         23.94800       26.76100       13.46900
H         23.54200       26.75200       15.15400
H         23.45200       29.24800       15.13600
H         22.30200       28.65400       13.81100
C         24.15900       29.60900       13.23500
C         23.52600       30.94600       13.08600
H         25.15100       29.79000       13.61100
H         22.43000       30.75500       12.80900
H         23.94400       31.42900       12.15300
O         24.10500       28.99800       11.91400
H         24.59500       28.20100       11.88400
C         23.58300       31.83500       14.35900
H         24.62300       32.05600       14.51700
H         23.12900       31.34900       15.22600
H         23.09700       32.80100       14.14500


