%chk=C10H24O2_pair_008_009.chk
%nproc=8
%mem=8000Mb
#p opt b3lyp/6-31G**

Conformer number 091. Energy MM = 0.000 kcal/mol

0 1
H         19.48700        1.80800        8.37300
C         20.53800        2.08400        8.45600
C         21.30900        0.91500        8.96700
H         20.88900        2.48600        7.42000
H         20.63200        2.96900        9.09100
H         21.32100        0.18600        8.13800
H         20.81400        0.45400        9.79300
C         22.65800        1.29300        9.29900
C         23.46200        0.06300        9.48500
H         23.09400        1.85400        8.40400
H         24.44000        0.37200        9.83600
H         23.59000       -0.36000        8.45700
O         22.77400        2.08100       10.44800
H         22.39900        2.94100       10.19400
C         22.90500       -0.87600       10.43300
H         23.73800       -1.55100       10.67700
H         22.03800       -1.42700        9.96700
H         22.70500       -0.42200       11.38000
H         29.32500       -5.13700        8.21700
C         29.77400       -4.24200        7.72500
C         28.68700       -3.63900        6.82500
H         30.06700       -3.56700        8.59000
H         30.67000       -4.48800        7.08200
H         28.37300       -4.25900        5.98300
H         28.99200       -2.69100        6.34400
C         27.51800       -3.37400        7.61900
C         26.38800       -3.02300        6.73800
H         27.20400       -4.24800        8.14600
H         26.04300       -3.93300        6.18500
H         26.70200       -2.17900        6.05200
O         27.85600       -2.34600        8.48700
H         28.19100       -2.78000        9.32800
C         25.15100       -2.43600        7.48400
H         24.22900       -2.43600        6.83900
H         25.23200       -1.40000        7.79500
H         25.06600       -2.97500        8.41200


