%chk=C10H24O2_pair_055_091.chk
%nproc=8
%mem=8000Mb
#p opt b3lyp/6-31G**

Conformer number 484. Energy MM = 0.000 kcal/mol

0 1
H          3.02300       17.04200       15.56300
C          3.19300       17.73500       14.67900
C          2.88400       19.22200       15.16500
H          4.20800       17.65100       14.40200
H          2.62700       17.47800       13.75400
H          1.95000       19.42900       15.65800
H          2.78100       19.77300       14.21400
C          3.98200       19.79400       16.00800
C          3.78600       21.24000       16.21100
H          4.00100       19.16300       16.90500
H          2.75100       21.53500       16.53800
H          3.81900       21.70500       15.17700
O          5.23600       19.67400       15.34000
H          5.92600       19.51200       15.97700
C          4.80700       21.98600       17.08200
H          4.71700       21.84500       18.18800
H          4.68000       23.06800       16.94400
H          5.85500       21.61800       16.88700
H         -2.40900       23.50000       21.18600
C         -2.16500       22.47800       20.83700
C         -0.67500       22.45800       20.30600
H         -2.36600       21.72000       21.60000
H         -2.92800       22.42700       19.98900
H         -0.13500       22.39400       21.26900
H         -0.44300       23.44000       19.80300
C         -0.32300       21.36000       19.39800
C          1.05100       21.12400       18.98800
H         -0.61700       20.46800       19.97800
H          1.78800       21.07900       19.91000
H          1.32600       22.02800       18.40900
O         -1.10700       21.47000       18.20500
H         -1.74700       20.74600       18.04700
C          1.05200       19.80000       18.24000
H          0.65900       19.01500       18.97400
H          2.05400       19.48100       17.90700
H          0.41400       19.81700       17.31400


