%chk=C10H24O2_pair_037_060.chk
%nproc=8
%mem=8000Mb
#p opt b3lyp/6-31G**

Conformer number 364. Energy MM = 0.000 kcal/mol

0 1
H          3.78300       12.20400       10.95800
C          2.73000       12.39700       10.62200
C          2.04100       11.20800       10.07500
H          2.26200       12.70500       11.56600
H          2.76800       13.32500        9.91800
H          0.94500       11.32100        9.91300
H          2.17500       10.40200       10.85800
C          2.68400       10.78900        8.85900
C          1.93400        9.79700        8.09100
H          2.78400       11.61200        8.15800
H          1.78000        8.89200        8.68900
H          0.94200       10.24900        7.66700
O          4.05700       10.40000        9.18600
H          4.63500       10.95400        8.62400
C          2.74100        9.28000        6.89300
H          3.00100       10.13000        6.20700
H          2.00500        8.64400        6.34500
H          3.62700        8.63400        7.11200
H         -5.17400        5.79900        9.92400
C         -4.58800        6.62400        9.54300
C         -3.26800        6.23900        8.88700
H         -5.20900        7.06100        8.75600
H         -4.48400        7.41400       10.33700
H         -2.99800        7.15200        8.29400
H         -3.54800        5.46300        8.12600
C         -2.09800        5.81500        9.64100
C         -0.94700        5.39500        8.81600
H         -1.78500        6.68400       10.28000
H         -1.24000        4.71800        8.00300
H         -0.22900        4.84100        9.45700
O         -2.49700        4.73800       10.45500
H         -1.80300        4.79400       11.15800
C         -0.11400        6.54600        8.25100
H         -0.67600        7.22000        7.63900
H          0.66500        6.21400        7.62800
H          0.40900        7.18400        8.96000


