%chk=C10H24O2_pair_081_094.chk
%nproc=8
%mem=8000Mb
#p opt b3lyp/6-31G**

Conformer number 586. Energy MM = 0.000 kcal/mol

0 1
H          0.70300        8.42900       20.42500
C          0.90700        7.67000       21.25700
C          0.64400        8.11100       22.68900
H          0.19200        6.86200       20.93800
H          1.94100        7.33700       21.21000
H          0.72900        7.26200       23.43000
H         -0.46700        8.44900       22.75500
C          1.58200        9.15100       23.22000
C          3.04200        8.87900       23.08600
H          1.47400       10.20200       22.79600
H          3.26000        8.85600       22.03600
H          3.25500        7.85000       23.46200
O          1.32600        9.53400       24.60100
H          1.56500        8.77400       25.10300
C          3.97800        9.89100       23.78000
H          3.70900       10.27100       24.80300
H          4.04400       10.77300       23.16300
H          5.01600        9.38600       23.79600
H         -1.42400       13.46800       12.92900
C         -0.73300       13.34800       13.82200
C         -0.76400       11.92400       14.38900
H          0.31700       13.71100       13.57000
H         -1.20800       14.13500       14.55700
H         -0.42100       11.25300       13.59600
H         -1.85300       11.70000       14.63200
C          0.11100       11.69600       15.55300
C          0.21900       10.29400       15.92400
H          1.17100       12.09600       15.28800
H          0.57700        9.61000       15.10700
H         -0.88000        9.95400       15.87900
O         -0.38200       12.50600       16.65700
H          0.31700       12.86300       17.23600
C          0.97200        9.97500       17.28200
H          1.03700        8.94500       17.61000
H          0.60800       10.50200       18.15500
H          2.04000       10.34900       17.15000


