%chk=C10H24O2_pair_081_087.chk
%nproc=8
%mem=8000Mb
#p opt b3lyp/6-31G**

Conformer number 582. Energy MM = 0.000 kcal/mol

0 1
H          0.70300        8.42900       20.42500
C          0.90700        7.67000       21.25700
C          0.64400        8.11100       22.68900
H          0.19200        6.86200       20.93800
H          1.94100        7.33700       21.21000
H          0.72900        7.26200       23.43000
H         -0.46700        8.44900       22.75500
C          1.58200        9.15100       23.22000
C          3.04200        8.87900       23.08600
H          1.47400       10.20200       22.79600
H          3.26000        8.85600       22.03600
H          3.25500        7.85000       23.46200
O          1.32600        9.53400       24.60100
H          1.56500        8.77400       25.10300
C          3.97800        9.89100       23.78000
H          3.70900       10.27100       24.80300
H          4.04400       10.77300       23.16300
H          5.01600        9.38600       23.79600
H         -0.17900       10.52500       28.49700
C         -0.25500       11.30200       27.65300
C         -0.98700       10.56700       26.50000
H         -0.84400       12.19500       28.02000
H          0.69300       11.69700       27.37100
H         -1.92200       10.10600       26.85600
H         -0.34900        9.65900       26.31400
C         -1.24300       11.50400       25.38900
C         -1.90900       10.97500       24.19700
H         -1.77300       12.37300       25.74100
H         -2.87100       10.60000       24.51200
H         -1.28500       10.13700       23.84500
O          0.09800       11.88500       24.93600
H          0.55000       11.04100       24.79000
C         -1.83300       11.95300       23.00000
H         -2.68000       11.87300       22.34600
H         -0.99700       11.73900       22.36000
H         -1.74300       13.02400       23.30900


