%chk=C10H24O2_pair_012_048.chk
%nproc=8
%mem=8000Mb
#p opt b3lyp/6-31G**

Conformer number 132. Energy MM = 0.000 kcal/mol

0 1
H         16.19600       15.39300        1.80300
C         16.69700       15.55200        2.75800
C         17.45200       14.35400        3.30500
H         17.45100       16.37400        2.60000
H         15.96800       15.91200        3.47300
H         16.75400       13.77600        3.85200
H         18.21700       14.63500        4.06500
C         18.09900       13.51200        2.24300
C         19.06500       12.54500        2.70900
H         17.31900       12.90400        1.76600
H         18.52100       11.77800        3.24100
H         19.73900       12.96200        3.42600
O         18.75800       14.38700        1.26200
H         18.14600       14.53800        0.52400
C         19.82400       11.83200        1.61600
H         20.69700       11.51300        2.20100
H         20.29300       12.53400        0.85600
H         19.39400       10.93600        1.19200
H         10.14800       14.18900        6.18100
C         10.74600       14.61500        6.96700
C         11.64900       15.63500        6.39000
H         10.05800       14.99100        7.75400
H         11.27300       13.75500        7.47700
H         12.09400       16.22000        7.18900
H         10.91300       16.26200        5.80100
C         12.71800       15.19900        5.46600
C         13.71400       14.27800        5.97100
H         12.03800       14.61900        4.81800
H         14.18000       13.83100        5.10000
H         13.20600       13.38900        6.52300
O         13.16900       16.33700        4.78700
H         13.00900       16.16800        3.82600
C         14.83500       14.97200        6.74100
H         15.48800       15.53700        5.99500
H         15.44200       14.24200        7.22600
H         14.52700       15.61000        7.55100


