%chk=C10H24O2_pair_036_086.chk
%nproc=8
%mem=8000Mb
#p opt b3lyp/6-31G**

Conformer number 359. Energy MM = 0.000 kcal/mol

0 1
H         15.86800        5.45700       23.97600
C         15.07300        5.46000       23.20900
C         14.92300        4.13900       22.44600
H         14.09800        5.72200       23.64200
H         15.35700        6.31500       22.60900
H         15.70300        4.03600       21.65500
H         14.00500        4.24700       21.84700
C         14.81000        2.90600       23.25200
C         15.87400        2.65400       24.29300
H         13.84300        3.03300       23.78200
H         15.58400        3.37800       25.05700
H         16.86300        2.96200       23.89900
O         14.63600        1.84300       22.33800
H         14.35400        1.08500       22.86200
C         15.93600        1.29000       24.81600
H         14.92700        0.96600       25.15800
H         16.70600        1.04400       25.53500
H         16.14000        0.63500       23.92100
H         20.12700       -4.92400       27.85600
C         19.21900       -5.59700       27.98400
C         17.96000       -5.08900       27.19400
H         19.68300       -6.46200       27.58700
H         19.12700       -5.81600       29.01500
H         17.02800       -5.68400       27.36000
H         18.22600       -5.20800       26.12800
C         17.68900       -3.70600       27.41300
C         16.57400       -3.20800       26.68500
H         17.39400       -3.56000       28.45300
H         15.65900       -3.68600       27.02800
H         16.66700       -3.30700       25.57700
O         18.88300       -2.91300       27.19400
H         18.94700       -2.86900       26.19800
C         16.43900       -1.73700       27.07200
H         17.26100       -1.09500       26.71000
H         16.32500       -1.58600       28.19500
H         15.57200       -1.18200       26.63000


