%chk=C10H24O2_pair_022_061.chk
%nproc=8
%mem=8000Mb
#p opt b3lyp/6-31G**

Conformer number 235. Energy MM = 0.000 kcal/mol

0 1
H          1.16200       18.19500        7.18500
C          1.71800       17.28200        7.16500
C          1.06300       16.13900        6.46900
H          2.62700       17.52500        6.51000
H          2.06900       17.00900        8.08500
H          0.69100       16.31200        5.39400
H          0.15600       15.82600        7.01600
C          1.80100       14.89700        6.50900
C          1.20200       13.79400        5.76800
H          2.79600       15.11000        6.10700
H          1.94400       12.96800        5.63200
H          0.97300       14.17700        4.79700
O          2.05500       14.58900        7.84300
H          1.16500       14.47600        8.23600
C         -0.04700       13.20300        6.36300
H         -0.49100       12.46200        5.58200
H         -0.74800       14.01300        6.60700
H          0.13800       12.67100        7.32000
H          6.34400       17.03700       10.49900
C          5.94600       16.12800       10.92900
C          4.87900       15.67400        9.96900
H          6.63700       15.32700       11.11600
H          5.53000       16.39700       11.89700
H          4.05100       16.39900        9.96100
H          4.42200       14.76500       10.45900
C          5.36000       15.38100        8.62600
C          5.45400       16.61000        7.75100
H          6.39300       14.97100        8.64100
H          6.08200       17.39900        8.25400
H          4.42500       17.07300        7.68200
O          4.60400       14.30000        8.01100
H          3.71600       14.65700        8.00800
C          6.09400       16.50300        6.35000
H          7.21900       16.67400        6.45500
H          5.77700       17.25700        5.69900
H          5.94100       15.52400        5.89300


