%chk=C10H24O2_pair_056_090.chk
%nproc=8
%mem=8000Mb
#p opt b3lyp/6-31G**

Conformer number 489. Energy MM = 0.000 kcal/mol

0 1
H         12.74100        9.42200       -1.07900
C         12.68000        8.63600       -0.31000
C         12.46700        9.32800        1.03200
H         11.81600        7.91700       -0.42500
H         13.64500        8.07300       -0.31500
H         13.46500        9.85000        1.38400
H         12.32100        8.57000        1.87100
C         11.37300       10.24300        1.26500
C         11.33900       10.57400        2.70500
H         11.45300       11.20900        0.73100
H         11.41300        9.68400        3.40000
H         10.42400       11.10200        2.95900
O         10.11900        9.62000        0.96600
H         10.09500        8.78500        1.45100
C         12.38500       11.62300        3.06200
H         13.44200       11.33100        2.93500
H         12.42200       11.83200        4.11000
H         12.17100       12.50000        2.47600
H          7.76300        6.73900        0.20300
C          6.97100        7.06500        0.90800
C          7.34000        7.97100        2.12400
H          6.25000        7.63600        0.35200
H          6.37900        6.10800        1.23400
H          6.43700        7.99000        2.81900
H          7.37500        9.06300        1.92200
C          8.42200        7.51100        2.88700
C          8.64500        8.17500        4.14200
H          8.04100        6.52800        3.17200
H          7.62400        8.21200        4.71600
H          8.96900        9.20000        3.90400
O          9.61700        7.31600        2.16500
H          9.91400        6.51900        2.62300
C          9.63200        7.45500        5.12100
H         10.67400        7.63600        4.81900
H          9.35800        6.44500        5.16200
H          9.41100        7.80800        6.11000


