%chk=C10H24O2_pair_076_092.chk
%nproc=8
%mem=8000Mb
#p opt b3lyp/6-31G**

Conformer number 573. Energy MM = 0.000 kcal/mol

0 1
H          7.51500       11.99200        4.51700
C          6.40400       12.17000        4.43500
C          5.75700       12.17400        5.79500
H          6.17200       13.08700        3.92900
H          6.01000       11.35400        3.83800
H          4.90300       11.52500        5.84600
H          5.45200       13.15400        5.97900
C          6.62200       11.71500        6.94100
C          7.16100       10.33400        6.99400
H          7.61400       12.33500        7.05500
H          7.43300       10.18200        8.06100
H          8.08600       10.18500        6.35400
O          5.78300       11.82600        8.08100
H          5.55000       12.70700        8.05500
C          6.25100        9.15100        6.72100
H          6.91100        8.24600        6.84300
H          5.71400        9.24300        5.75300
H          5.53800        9.04800        7.59200
H          3.79600       13.32800        3.93300
C          3.75500       14.27200        3.42900
C          3.91000       14.18100        1.85900
H          2.73600       14.71600        3.55500
H          4.56200       14.85200        3.84200
H          4.89400       13.66800        1.69200
H          3.95500       15.19100        1.51700
C          2.94000       13.36500        1.13700
C          3.35900       13.51900       -0.26300
H          2.96400       12.24800        1.40100
H          4.28400       12.94600       -0.49200
H          3.47200       14.62400       -0.49400
O          1.64400       13.87400        1.40200
H          1.10700       13.17200        1.01400
C          2.32300       13.16200       -1.29600
H          1.32500       13.81100       -1.18300
H          1.91800       12.23500       -1.21600
H          2.60800       13.31800       -2.36700


