%chk=C10H24O2_pair_064_096.chk
%nproc=8
%mem=8000Mb
#p opt b3lyp/6-31G**

Conformer number 528. Energy MM = 0.000 kcal/mol

0 1
H         12.56400       23.74700       18.39000
C         12.48100       22.75600       17.98700
C         12.93200       21.66400       18.95300
H         11.38500       22.54000       17.77400
H         13.03400       22.60700       17.12900
H         12.86600       20.57200       18.52600
H         12.26200       21.67000       19.84500
C         14.33500       21.82900       19.45600
C         14.81400       20.53300       20.02000
H         14.90900       22.32700       18.72700
H         15.21000       19.95400       19.23200
H         13.98600       20.01200       20.48000
O         14.30600       22.66400       20.61400
H         14.33000       23.63000       20.39100
C         15.99900       20.45600       21.07200
H         16.87700       20.74800       20.51400
H         16.07200       19.36100       21.47100
H         15.95700       21.08900       21.94900
H         13.80000       26.06700       18.68600
C         14.40000       26.71700       18.01400
C         15.60900       27.02700       18.86900
H         14.56900       26.12400       17.15400
H         13.92500       27.68500       17.70000
H         15.22900       27.66100       19.67200
H         16.33000       27.60700       18.23800
C         16.13100       25.78800       19.46700
C         16.74800       24.84200       18.59000
H         16.87800       26.08000       20.24200
H         17.62700       25.29400       17.96900
H         16.01200       24.48700       17.78800
O         15.03400       25.18500       20.13700
H         14.70300       25.86900       20.79600
C         17.37400       23.74300       19.42300
H         18.19800       24.15900       20.00800
H         17.80800       22.87000       18.91200
H         16.69700       23.24500       20.17800


