%chk=C10H24O2_pair_044_087.chk
%nproc=8
%mem=8000Mb
#p opt b3lyp/6-31G**

Conformer number 423. Energy MM = 0.000 kcal/mol

0 1
H         23.76700        7.80800        5.46700
C         24.15700        7.45000        4.45700
C         23.00100        7.07800        3.48900
H         24.81600        8.31800        4.10700
H         24.83800        6.67600        4.70600
H         22.43400        7.96700        3.40100
H         22.31800        6.37500        3.92700
C         23.36100        6.65600        2.14500
C         22.29900        6.27400        1.19500
H         23.88400        7.42000        1.65200
H         21.80900        5.33300        1.51000
H         22.91300        5.95500        0.35300
O         24.26000        5.62800        2.18100
H         23.91400        4.97800        2.75200
C         21.25000        7.29900        0.82200
H         21.80400        8.15200        0.35500
H         20.56800        7.55900        1.69600
H         20.43300        6.85900        0.15300
H         24.28300       10.52500        4.03500
C         24.20700       11.30200        3.19100
C         23.47500       10.56700        2.03800
H         23.61800       12.19500        3.55800
H         25.15500       11.69700        2.90900
H         22.54000       10.10600        2.39400
H         24.11300        9.65900        1.85200
C         23.21900       11.50400        0.92700
C         22.55300       10.97500       -0.26500
H         22.68900       12.37300        1.27900
H         21.59100       10.60000        0.05000
H         23.17700       10.13700       -0.61700
O         24.56000       11.88500        0.47400
H         25.01200       11.04100        0.32800
C         22.62900       11.95300       -1.46200
H         21.78200       11.87300       -2.11600
H         23.46500       11.73900       -2.10200
H         22.71900       13.02400       -1.15300


