%chk=C10H24O2_pair_006_080.chk
%nproc=8
%mem=8000Mb
#p opt b3lyp/6-31G**

Conformer number 077. Energy MM = 0.000 kcal/mol

0 1
H          5.20400        1.78700        6.55400
C          5.06300        0.71100        6.51400
C          5.91000       -0.04600        7.51800
H          4.06900        0.44000        6.79800
H          5.31800        0.47200        5.40700
H          5.66000       -1.15000        7.58300
H          5.78200        0.33200        8.50600
C          7.33200        0.03600        7.17500
C          8.28700       -0.69100        8.03900
H          7.44100       -0.38200        6.15400
H          7.97300       -1.77800        8.21800
H          8.28700       -0.29000        9.04700
O          7.79100        1.43400        7.03500
H          7.34600        1.86200        7.78000
C          9.78100       -0.73400        7.68000
H         10.35800        0.14300        7.88800
H          9.96400       -1.02800        6.63300
H         10.27800       -1.48700        8.27700
H          9.44700        3.41500        6.17600
C         10.53800        3.38900        6.40800
C         11.34700        4.16800        5.43600
H         10.68400        3.91200        7.39300
H         10.96600        2.41200        6.68300
H         12.43800        4.05100        5.71300
H         11.28400        5.28700        5.52700
C         11.23500        3.92400        3.97800
C         12.16100        4.69000        3.17300
H         11.41700        2.76200        3.73300
H         13.22600        4.49900        3.52800
H         11.82000        5.79400        3.32500
O          9.95100        4.33300        3.44400
H          9.31900        3.80400        3.92700
C         12.08700        4.19700        1.71900
H         12.79600        4.82000        1.04300
H         11.00300        4.36900        1.39300
H         12.35800        3.20000        1.71700


