%chk=C10H24O2_pair_036_066.chk
%nproc=8
%mem=8000Mb
#p opt b3lyp/6-31G**

Conformer number 356. Energy MM = 0.000 kcal/mol

0 1
H         15.86800        5.45700       23.97600
C         15.07300        5.46000       23.20900
C         14.92300        4.13900       22.44600
H         14.09800        5.72200       23.64200
H         15.35700        6.31500       22.60900
H         15.70300        4.03600       21.65500
H         14.00500        4.24700       21.84700
C         14.81000        2.90600       23.25200
C         15.87400        2.65400       24.29300
H         13.84300        3.03300       23.78200
H         15.58400        3.37800       25.05700
H         16.86300        2.96200       23.89900
O         14.63600        1.84300       22.33800
H         14.35400        1.08500       22.86200
C         15.93600        1.29000       24.81600
H         14.92700        0.96600       25.15800
H         16.70600        1.04400       25.53500
H         16.14000        0.63500       23.92100
H         13.19000        0.09200       29.63000
C         14.04300        0.79000       29.82900
C         14.46200        1.54000       28.57700
H         13.73900        1.37100       30.74800
H         15.03900        0.27700       30.23700
H         13.69400        2.25900       28.17300
H         14.69700        0.82900       27.70200
C         15.67300        2.30500       28.84400
C         16.90900        1.58800       29.12200
H         15.81300        2.85200       27.92600
H         17.11000        0.75100       28.41000
H         16.81700        0.96300       30.01500
O         15.24700        3.32300       29.75000
H         15.04600        2.80200       30.57400
C         18.13800        2.54100       29.28700
H         18.35500        2.67400       30.34300
H         18.12000        3.52600       28.82000
H         19.08700        2.06700       28.96800


