%chk=C10H24O2_pair_073_096.chk
%nproc=8
%mem=8000Mb
#p opt b3lyp/6-31G**

Conformer number 565. Energy MM = 0.000 kcal/mol

0 1
H         10.59100       24.29400       10.74800
C         10.16600       23.59900       11.58100
C         10.59400       24.10500       12.95500
H          9.04500       23.46900       11.45300
H         10.51100       22.56700       11.31700
H         10.05500       23.65400       13.80000
H         10.25700       25.19700       12.99000
C         12.01700       23.92500       13.19200
C         12.48400       24.44400       14.49700
H         12.32400       22.85400       13.18800
H         11.95700       23.88600       15.26300
H         12.23000       25.50400       14.61300
O         12.81200       24.53400       12.12500
H         13.18100       23.75300       11.71100
C         13.93400       24.35700       14.67000
H         14.41300       23.44100       14.27600
H         14.37900       24.40500       15.71900
H         14.39700       25.08000       14.04400
H         13.80000       26.06700       18.68600
C         14.40000       26.71700       18.01400
C         15.60900       27.02700       18.86900
H         14.56900       26.12400       17.15400
H         13.92500       27.68500       17.70000
H         15.22900       27.66100       19.67200
H         16.33000       27.60700       18.23800
C         16.13100       25.78800       19.46700
C         16.74800       24.84200       18.59000
H         16.87800       26.08000       20.24200
H         17.62700       25.29400       17.96900
H         16.01200       24.48700       17.78800
O         15.03400       25.18500       20.13700
H         14.70300       25.86900       20.79600
C         17.37400       23.74300       19.42300
H         18.19800       24.15900       20.00800
H         17.80800       22.87000       18.91200
H         16.69700       23.24500       20.17800


