%chk=C10H24O2_pair_084_086.chk
%nproc=8
%mem=8000Mb
#p opt b3lyp/6-31G**

Conformer number 590. Energy MM = 0.000 kcal/mol

0 1
H         18.16300       13.78300       20.18500
C         18.57900       13.52200       21.13900
C         18.70500       14.75900       22.06900
H         18.02800       12.60900       21.42900
H         19.59300       13.17700       20.85200
H         19.23500       15.46900       21.41700
H         19.46300       14.52300       22.77800
C         17.57600       15.39500       22.67100
C         18.01900       16.69800       23.16500
H         16.81200       15.57400       21.92700
H         18.57400       17.26900       22.51100
H         18.73100       16.56200       24.03500
O         17.11200       14.66900       23.75500
H         16.17100       14.59000       23.68400
C         16.95500       17.64400       23.72900
H         16.53400       17.17100       24.65400
H         16.23700       17.75700       22.96200
H         17.23100       18.64300       24.10100
H         20.12700       19.53800       27.85600
C         19.21900       18.86500       27.98400
C         17.96000       19.37300       27.19400
H         19.68300       18.00000       27.58700
H         19.12700       18.64600       29.01500
H         17.02800       18.77800       27.36000
H         18.22600       19.25400       26.12800
C         17.68900       20.75600       27.41300
C         16.57400       21.25400       26.68500
H         17.39400       20.90200       28.45300
H         15.65900       20.77600       27.02800
H         16.66700       21.15500       25.57700
O         18.88300       21.54900       27.19400
H         18.94700       21.59300       26.19800
C         16.43900       22.72500       27.07200
H         17.26100       23.36700       26.71000
H         16.32500       22.87600       28.19500
H         15.57200       23.28000       26.63000


