%chk=C10H24O2_pair_020_049.chk
%nproc=8
%mem=8000Mb
#p opt b3lyp/6-31G**

Conformer number 215. Energy MM = 0.000 kcal/mol

0 1
H         15.19500        7.26900        9.71900
C         14.17000        6.96500        9.57200
C         14.04400        6.80200        8.06300
H         14.13700        5.97000       10.06700
H         13.51600        7.73300       10.00700
H         14.15300        7.79800        7.58000
H         13.06100        6.43300        7.83200
C         14.94500        5.74900        7.44700
C         16.36100        6.15000        7.66200
H         14.79800        4.72800        7.79400
H         16.62000        6.12600        8.71100
H         16.49600        7.25900        7.37900
O         14.70800        5.70800        6.05600
H         15.06500        4.83500        5.77300
C         17.43000        5.24400        6.93600
H         17.43800        4.20400        7.30100
H         18.46500        5.62100        7.06500
H         17.31000        5.12700        5.81500
H         10.70100        7.49500       13.79900
C         11.02400        7.88900       12.81800
C         12.41500        8.62600       12.93300
H         11.05900        7.15500       12.02400
H         10.28100        8.69300       12.52500
H         12.56400        9.13200       11.96200
H         13.27600        7.95800       12.97900
C         12.42600        9.66400       13.98800
C         13.74400       10.33400       14.15600
H         11.69200       10.45800       13.81100
H         13.53400       11.10700       14.91700
H         14.02200       10.79900       13.20600
O         12.04100        9.01100       15.16700
H         12.77100        8.40700       15.29300
C         14.91700        9.50900       14.64600
H         15.15300        8.83400       13.81200
H         14.75500        8.91800       15.55500
H         15.73500       10.18100       14.87700


