%chk=C10H24O2_pair_009_075.chk
%nproc=8
%mem=8000Mb
#p opt b3lyp/6-31G**

Conformer number 106. Energy MM = 0.000 kcal/mol

0 1
H          4.86300       19.32500        8.21700
C          5.31200       20.22000        7.72500
C          4.22500       20.82300        6.82500
H          5.60500       20.89500        8.59000
H          6.20800       19.97400        7.08200
H          3.91100       20.20300        5.98300
H          4.53000       21.77100        6.34400
C          3.05600       21.08800        7.61900
C          1.92600       21.43900        6.73800
H          2.74200       20.21400        8.14600
H          1.58100       20.52900        6.18500
H          2.24000       22.28300        6.05200
O          3.39400       22.11600        8.48700
H          3.72900       21.68200        9.32800
C          0.68900       22.02600        7.48400
H         -0.23300       22.02600        6.83900
H          0.77000       23.06200        7.79500
H          0.60400       21.48700        8.41200
H          0.65600       23.14800       13.12200
C          1.00100       22.09400       12.81500
C          2.45900       22.06600       12.34900
H          0.81000       21.45600       13.73500
H          0.27200       21.81100       12.07000
H          3.08900       21.63500       13.17700
H          2.91400       23.06800       12.18800
C          2.66700       21.17700       11.16900
C          2.21100       19.79100       11.35100
H          2.08000       21.63700       10.39100
H          1.19800       19.68200       11.69500
H          2.88100       19.38800       12.18000
O          4.02800       21.12700       10.87300
H          4.46900       20.80400       11.69600
C          2.25900       18.75000       10.15600
H          2.00900       17.76700       10.69500
H          3.21200       18.86200        9.62600
H          1.50800       18.83600        9.36400


