%chk=C10H24O2_pair_023_025.chk
%nproc=8
%mem=8000Mb
#p opt b3lyp/6-31G**

Conformer number 239. Energy MM = 0.000 kcal/mol

0 1
H         23.12400       16.70800       16.55100
C         23.73700       16.97000       15.66200
C         23.58600       18.37600       15.11100
H         24.78300       16.72900       15.93400
H         23.46100       16.19000       14.89900
H         24.24700       18.54000       14.30400
H         23.74600       19.14700       15.94400
C         22.29300       18.67900       14.57200
C         22.30600       19.92300       13.86100
H         21.93700       17.92500       13.80000
H         23.16300       20.02100       13.24300
H         22.47500       20.71300       14.56800
O         21.22000       18.63900       15.51300
H         20.39000       18.87000       15.09300
C         21.10500       20.22500       12.99100
H         20.14500       20.03800       13.64800
H         21.03200       19.59400       12.08900
H         21.10100       21.35700       12.73600
H         25.72800       15.69600       13.03600
C         25.00500       15.99900       12.31700
C         25.24100       15.23700       11.00800
H         24.09100       15.60900       12.67300
H         25.11800       17.06300       12.17700
H         25.10000       14.24400       11.40600
H         26.33000       15.23100       10.75000
C         24.32000       15.53000        9.95400
C         22.98600       15.98700       10.30300
H         24.65200       16.36600        9.23800
H         22.95400       16.93900       10.88700
H         22.50600       15.29100       11.06400
O         24.28700       14.46700        9.04800
H         23.50800       13.96500        9.21300
C         22.07600       16.12000        9.13000
H         21.06100       16.41900        9.54100
H         21.86100       15.18600        8.67700
H         22.49900       16.88600        8.35500


