%chk=C10H24O2_pair_061_093.chk
%nproc=8
%mem=8000Mb
#p opt b3lyp/6-31G**

Conformer number 515. Energy MM = 0.000 kcal/mol

0 1
H          6.34400       17.03700       10.49900
C          5.94600       16.12800       10.92900
C          4.87900       15.67400        9.96900
H          6.63700       15.32700       11.11600
H          5.53000       16.39700       11.89700
H          4.05100       16.39900        9.96100
H          4.42200       14.76500       10.45900
C          5.36000       15.38100        8.62600
C          5.45400       16.61000        7.75100
H          6.39300       14.97100        8.64100
H          6.08200       17.39900        8.25400
H          4.42500       17.07300        7.68200
O          4.60400       14.30000        8.01100
H          3.71600       14.65700        8.00800
C          6.09400       16.50300        6.35000
H          7.21900       16.67400        6.45500
H          5.77700       17.25700        5.69900
H          5.94100       15.52400        5.89300
H          8.95700       19.16500       11.97900
C          8.04900       19.78400       11.76400
C          7.96500       20.85700       12.88300
H          8.19600       20.35600       10.90800
H          7.26900       19.05200       11.57000
H          8.71900       21.61100       12.71500
H          8.14400       20.42200       13.91300
C          6.74100       21.64100       12.92200
C          6.70700       22.69100       13.95900
H          6.55300       22.03600       11.93000
H          7.71800       23.14100       14.17300
H          6.36900       22.21900       14.86600
O          5.60000       20.75100       13.09200
H          5.51700       20.56900       14.00100
C          5.61200       23.77200       13.70400
H          5.43900       24.46900       14.58000
H          4.68200       23.24500       13.54800
H          5.71900       24.46900       12.87400


