%chk=C10H24O2_pair_016_034.chk
%nproc=8
%mem=8000Mb
#p opt b3lyp/6-31G**

Conformer number 171. Energy MM = 0.000 kcal/mol

0 1
H          3.44600        4.42600        3.84400
C          3.06100        5.46500        3.75600
C          3.70400        6.12700        2.53100
H          1.97700        5.46400        3.75800
H          3.46100        5.94700        4.65200
H          3.53300        5.50700        1.60700
H          4.86200        6.18300        2.72200
C          3.24200        7.48400        2.22000
C          3.16700        8.32600        3.40800
H          3.85400        7.94600        1.41100
H          4.08500        8.29200        4.01100
H          2.32800        8.02700        3.98600
O          1.90600        7.49000        1.61500
H          1.41000        6.76000        2.00300
C          3.02400        9.78700        2.98900
H          3.12200       10.61300        3.76000
H          2.15000        9.93500        2.30000
H          3.90000       10.08800        2.32100
H          3.80700        5.15600       10.25400
C          2.99500        4.96100        9.55200
C          3.53200        4.47500        8.20900
H          2.27300        4.19800       10.05900
H          2.45000        5.94100        9.36500
H          2.83000        4.43000        7.38600
H          3.91800        3.50000        8.39500
C          4.63200        5.28100        7.62200
C          5.31700        4.65500        6.48700
H          4.20400        6.23700        7.25100
H          4.54500        4.14400        5.86200
H          6.00600        3.86900        6.78800
O          5.61500        5.55700        8.59500
H          5.39800        6.48500        8.81400
C          6.02300        5.62100        5.52200
H          5.33500        6.38200        5.14100
H          6.51800        5.17300        4.65000
H          6.80700        6.07000        6.11900


