%chk=C10H24O2_pair_051_057.chk
%nproc=8
%mem=8000Mb
#p opt b3lyp/6-31G**

Conformer number 457. Energy MM = 0.000 kcal/mol

0 1
H         22.09300       20.56200       -1.02000
C         22.78300       20.69300       -0.18600
C         22.08300       20.98500        1.15400
H         23.24200       19.71700       -0.14800
H         23.60600       21.44400       -0.46100
H         21.33500       20.22000        1.32600
H         21.59900       21.95000        1.19400
C         22.95600       21.05600        2.40700
C         24.00600       22.07800        2.33000
H         22.37100       21.47100        3.28200
H         23.48200       23.02900        2.18300
H         24.82000       21.92000        1.58700
O         23.51800       19.80500        2.82400
H         22.80500       19.20700        2.90400
C         24.75600       22.20900        3.73100
H         25.34700       23.13900        3.75900
H         25.45900       21.32800        3.93500
H         24.09600       22.47200        4.59000
H         21.83300       15.23000       -2.06400
C         21.70900       15.92100       -1.15000
C         22.12600       15.16400        0.16600
H         22.33500       16.82900       -1.34300
H         20.64600       16.36500       -1.09700
H         23.19500       14.92900        0.07600
H         21.54700       14.21000        0.18900
C         21.92900       15.82000        1.50700
C         22.27900       14.91600        2.65400
H         22.39800       16.83700        1.62100
H         23.39700       14.87500        2.82500
H         21.91500       13.86700        2.49900
O         20.54800       16.12700        1.51700
H         20.06300       15.29800        1.45400
C         21.66700       15.25000        4.05700
H         22.00800       16.28400        4.38900
H         22.07600       14.41800        4.68000
H         20.58300       15.08900        3.95800


