%chk=C10H24O2_pair_032_081.chk
%nproc=8
%mem=8000Mb
#p opt b3lyp/6-31G**

Conformer number 325. Energy MM = 0.000 kcal/mol

0 1
H          7.96400        8.05900       22.05000
C          8.40700        8.92400       22.63100
C          7.77500       10.31400       22.38900
H          8.23100        8.78600       23.71200
H          9.51400        8.98400       22.52200
H          6.73600       10.16100       22.13600
H          8.29300       10.75600       21.48900
C          7.91000       11.24400       23.45500
C          7.20200       12.49100       23.19500
H          7.38500       10.78600       24.28500
H          6.16800       12.23700       22.99700
H          7.60800       12.95200       22.27500
O          9.26100       11.53200       23.64000
H          9.65700       10.80300       24.13800
C          7.39000       13.52800       24.32000
H          8.42600       13.85900       24.41100
H          6.97700       13.13100       25.21300
H          6.77500       14.46300       24.09300
H          0.70300        8.42900       20.42500
C          0.90700        7.67000       21.25700
C          0.64400        8.11100       22.68900
H          0.19200        6.86200       20.93800
H          1.94100        7.33700       21.21000
H          0.72900        7.26200       23.43000
H         -0.46700        8.44900       22.75500
C          1.58200        9.15100       23.22000
C          3.04200        8.87900       23.08600
H          1.47400       10.20200       22.79600
H          3.26000        8.85600       22.03600
H          3.25500        7.85000       23.46200
O          1.32600        9.53400       24.60100
H          1.56500        8.77400       25.10300
C          3.97800        9.89100       23.78000
H          3.70900       10.27100       24.80300
H          4.04400       10.77300       23.16300
H          5.01600        9.38600       23.79600


