%chk=C10H24O2_pair_065_079.chk
%nproc=8
%mem=8000Mb
#p opt b3lyp/6-31G**

Conformer number 530. Energy MM = 0.000 kcal/mol

0 1
H         18.59700       16.65800       14.05900
C         19.42800       16.50200       13.32600
C         19.17000       15.33400       12.40200
H         19.38500       17.47200       12.76100
H         20.41800       16.45300       13.89900
H         20.00200       15.35500       11.64300
H         18.17000       15.66100       11.95100
C         18.99000       13.94400       12.91200
C         17.91100       13.78200       13.83700
H         18.64100       13.41900       12.07600
H         17.02800       14.39900       13.59600
H         18.23400       14.20100       14.83500
O         20.16200       13.35900       13.38200
H         20.32200       13.73900       14.25200
C         17.25600       12.36700       14.08600
H         16.56100       12.53500       14.96000
H         17.86900       11.49800       14.41800
H         16.67600       12.08600       13.20600
H         23.41900       10.39600       10.91800
C         23.33400        9.46300       11.48000
C         21.79400        9.29600       11.59800
H         23.59600        8.58700       10.79000
H         24.02100        9.48200       12.27700
H         21.54900        8.31300       12.04000
H         21.41500        9.18800       10.57500
C         21.07600       10.25700       12.38300
C         19.66900        9.92200       12.41900
H         21.39500       10.31900       13.45200
H         19.24400       10.48000       13.26100
H         19.50300        8.85500       12.76900
O         21.36000       11.54800       11.84100
H         20.81100       12.12300       12.40700
C         18.88000       10.17700       11.12900
H         17.82700        9.95000       11.40300
H         19.10200        9.49000       10.36800
H         18.83400       11.20300       10.73300


