%chk=C10H24O2_pair_030_070.chk
%nproc=8
%mem=8000Mb
#p opt b3lyp/6-31G**

Conformer number 311. Energy MM = 0.000 kcal/mol

0 1
H         12.95100       17.70300       10.47600
C         12.27500       17.34500        9.70700
C         10.94000       16.79900       10.15700
H         12.01400       18.13200        8.95800
H         12.72600       16.60900        9.07400
H         10.45300       16.57900        9.22800
H         10.29700       17.57300       10.63800
C         10.82200       15.63300       10.97200
C         11.39000       15.76900       12.29500
H          9.77100       15.46700       11.16300
H         12.51500       15.67000       12.17500
H         11.10500       14.87700       12.89500
O         11.38300       14.47700       10.31400
H         11.14300       13.74400       10.86300
C         11.17800       17.08800       13.05200
H         10.15200       17.39300       13.12100
H         11.64600       17.97900       12.59800
H         11.46000       16.92100       14.13700
H          9.33800       22.45200       19.03400
C          8.62800       22.05300       18.40100
C          9.21200       21.34100       17.16200
H          8.02300       21.44100       19.05000
H          8.01800       22.84000       17.96500
H          9.89100       22.05500       16.64500
H          8.42500       21.18400       16.37900
C          9.95900       20.09500       17.31800
C         10.10000       19.60500       15.94800
H         10.96600       20.17300       17.72400
H          9.08900       19.38900       15.52300
H         10.51500       18.60500       16.05400
O          9.25200       19.17200       18.14000
H          9.32700       19.52900       19.02200
C         10.90400       20.40200       14.94000
H         11.07500       19.80100       14.00500
H         11.92600       20.62400       15.35000
H         10.37100       21.34200       14.68200


