%chk=C10H24O2_pair_040_079.chk
%nproc=8
%mem=8000Mb
#p opt b3lyp/6-31G**

Conformer number 392. Energy MM = 0.000 kcal/mol

0 1
H         18.01100       13.71500        7.77500
C         18.96500       13.07600        7.49200
C         19.99200       13.08300        8.55600
H         18.67600       12.04700        7.28700
H         19.28900       13.56300        6.58000
H         19.58600       12.60700        9.43100
H         20.14500       14.06700        8.99500
C         21.25900       12.48900        8.22600
C         21.10000       11.11800        7.86100
H         21.63200       13.00400        7.38100
H         20.61200       11.10700        6.87000
H         20.42300       10.64300        8.56200
O         22.25200       12.70800        9.25600
H         21.91800       12.31500       10.09100
C         22.36700       10.21400        7.59900
H         23.07300       10.52400        6.84200
H         22.97300        9.96800        8.48100
H         22.03000        9.20600        7.35900
H         23.41900       10.39600       10.91800
C         23.33400        9.46300       11.48000
C         21.79400        9.29600       11.59800
H         23.59600        8.58700       10.79000
H         24.02100        9.48200       12.27700
H         21.54900        8.31300       12.04000
H         21.41500        9.18800       10.57500
C         21.07600       10.25700       12.38300
C         19.66900        9.92200       12.41900
H         21.39500       10.31900       13.45200
H         19.24400       10.48000       13.26100
H         19.50300        8.85500       12.76900
O         21.36000       11.54800       11.84100
H         20.81100       12.12300       12.40700
C         18.88000       10.17700       11.12900
H         17.82700        9.95000       11.40300
H         19.10200        9.49000       10.36800
H         18.83400       11.20300       10.73300


