%chk=C10H24O2_pair_013_045.chk
%nproc=8
%mem=8000Mb
#p opt b3lyp/6-31G**

Conformer number 144. Energy MM = 0.000 kcal/mol

0 1
H         21.36300       25.24900       19.49200
C         20.69700       25.34300       18.68700
C         20.71100       24.24100       17.63500
H         19.73400       25.30300       19.22800
H         20.75900       26.30900       18.14900
H         19.80500       24.50800       17.16400
H         20.63800       23.22600       18.04000
C         21.85300       24.33100       16.73200
C         21.69900       23.52100       15.42800
H         21.89200       25.36700       16.46300
H         20.99200       24.02300       14.74600
H         21.33100       22.43900       15.63700
O         23.10600       24.13400       17.38400
H         23.00600       23.18700       17.53000
C         23.00700       23.35000       14.68400
H         22.84800       22.98200       13.70600
H         23.65400       22.62700       15.11100
H         23.56700       24.30000       14.62500
H         18.88600       27.14100       16.54000
C         18.53000       28.16700       16.82000
C         19.28900       29.26200       16.02200
H         17.46400       28.29300       16.45800
H         18.49800       28.36500       17.93500
H         19.05700       29.15500       14.97000
H         20.36200       29.23100       16.16600
C         18.88500       30.67900       16.29900
C         19.54800       31.60200       15.41100
H         17.82400       30.81000       16.02300
H         19.16800       31.36000       14.37600
H         20.62500       31.28800       15.37500
O         18.94900       30.94100       17.70900
H         19.84900       30.72400       17.95100
C         19.31400       33.05100       15.69100
H         19.48300       33.21800       16.78500
H         18.23800       33.28800       15.44400
H         19.91300       33.77100       15.06400


