%chk=C10H24O2_pair_022_031.chk
%nproc=8
%mem=8000Mb
#p opt b3lyp/6-31G**

Conformer number 231. Energy MM = 0.000 kcal/mol

0 1
H          1.16200       18.19500        7.18500
C          1.71800       17.28200        7.16500
C          1.06300       16.13900        6.46900
H          2.62700       17.52500        6.51000
H          2.06900       17.00900        8.08500
H          0.69100       16.31200        5.39400
H          0.15600       15.82600        7.01600
C          1.80100       14.89700        6.50900
C          1.20200       13.79400        5.76800
H          2.79600       15.11000        6.10700
H          1.94400       12.96800        5.63200
H          0.97300       14.17700        4.79700
O          2.05500       14.58900        7.84300
H          1.16500       14.47600        8.23600
C         -0.04700       13.20300        6.36300
H         -0.49100       12.46200        5.58200
H         -0.74800       14.01300        6.60700
H          0.13800       12.67100        7.32000
H          3.67000       21.61700        3.82500
C          3.75700       21.02400        2.89700
C          3.62500       19.45600        3.04300
H          2.98600       21.47700        2.15600
H          4.71000       21.36500        2.42300
H          4.26300       19.13200        3.89800
H          4.03900       19.06000        2.11700
C          2.30000       18.93100        3.20900
C          2.17900       17.45400        3.25000
H          1.91000       19.19700        4.18900
H          2.49000       16.99100        4.23000
H          2.79700       16.97000        2.45500
O          1.59000       19.45700        2.15000
H          0.74500       19.65400        2.54300
C          0.73900       16.96000        3.03400
H          0.65100       15.84300        3.24400
H          0.39400       17.21400        2.02500
H         -0.01900       17.47600        3.64000


