%chk=C10H24O2_pair_010_035.chk
%nproc=8
%mem=8000Mb
#p opt b3lyp/6-31G**

Conformer number 112. Energy MM = 0.000 kcal/mol

0 1
H          2.58800        3.91500       12.36700
C          3.48600        3.27800       12.62100
C          2.95500        1.81900       12.82900
H          4.20300        3.39200       11.73800
H          3.94300        3.60800       13.49500
H          2.19300        1.72700       13.58700
H          3.76800        1.24100       13.05400
C          2.23300        1.34400       11.65200
C          3.01600        1.19000       10.40400
H          1.81900        0.36000       11.96000
H          3.79800        0.38400       10.58700
H          3.57100        2.09700       10.18200
O          1.07900        2.17900       11.60000
H          0.47600        1.69300       10.96100
C          2.22500        0.72600        9.17300
H          1.40700        1.44700        8.92900
H          1.91900       -0.28600        9.25600
H          2.87400        0.63400        8.34300
H          2.39900        1.38200       21.67800
C          1.69200        1.13400       20.84400
C          2.38000        1.00300       19.56200
H          1.09800        0.26700       21.13000
H          1.04300        1.95100       20.89400
H          3.11900        0.17000       19.76600
H          2.94500        1.95200       19.26800
C          1.62300        0.63700       18.35200
C          2.43800        0.50500       17.19300
H          1.21600       -0.35200       18.55200
H          3.16700       -0.26500       17.49900
H          2.99400        1.51000       17.08500
O          0.49600        1.49000       18.24000
H         -0.09500        0.94500       17.79000
C          1.81900        0.16800       15.89000
H          2.62900        0.15900       15.17800
H          1.08000        0.97200       15.70200
H          1.24600       -0.82000       15.81600


