%chk=C10H24O2_pair_068_074.chk
%nproc=8
%mem=8000Mb
#p opt b3lyp/6-31G**

Conformer number 542. Energy MM = 0.000 kcal/mol

0 1
H          3.07600       16.26600       20.28000
C          2.53400       16.61900       19.47400
C          2.39800       15.57700       18.37600
H          3.10900       17.46500       19.12800
H          1.58000       17.10200       19.86400
H          3.40900       15.35100       18.18700
H          1.80700       15.88900       17.52800
C          1.75500       14.36900       18.88500
C          0.34300       14.43700       19.37400
H          2.39300       13.92800       19.67100
H         -0.22600       14.73300       18.50800
H          0.11000       15.23100       20.10700
O          1.77800       13.31300       17.84800
H          2.70000       13.28500       17.50300
C         -0.17000       13.01700       19.91900
H          0.25700       12.66400       20.85900
H          0.04200       12.23100       19.20800
H         -1.25400       12.90500       20.10000
H          5.80000       14.70800       13.78100
C          4.77100       14.52600       13.45200
C          4.02800       13.95100       14.59500
H          4.40600       15.50100       13.09600
H          4.90600       13.76000       12.60400
H          3.11200       13.48300       14.23300
H          3.63300       14.69700       15.29600
C          4.72100       12.98900       15.45600
C          5.46300       11.84900       14.89700
H          5.41100       13.64300       16.03900
H          5.85400       11.29600       15.76700
H          6.43500       12.13900       14.31000
O          3.79800       12.54400       16.44800
H          4.37000       12.14700       17.12000
C          4.60700       10.87800       14.22000
H          3.53800       10.99100       14.50500
H          4.90000        9.82000       14.39900
H          4.66300       11.15600       13.17200


