%chk=C10H24O2_pair_002_086.chk
%nproc=8
%mem=8000Mb
#p opt b3lyp/6-31G**

Conformer number 034. Energy MM = 0.000 kcal/mol

0 1
H         22.43700       20.29800       10.86400
C         22.75800       20.08000        9.82200
C         21.79600       20.58700        8.74700
H         23.79600       20.42400        9.67500
H         22.74100       18.94300        9.83700
H         21.93800       21.61100        8.44500
H         20.80700       20.47200        9.17600
C         21.77300       19.71800        7.56400
C         22.97900       19.84100        6.81400
H         21.74000       18.69200        7.88300
H         23.92500       19.82300        7.46100
H         22.86700       20.68300        6.10100
O         20.60400       19.77900        6.67500
H         20.68100       20.54200        6.10600
C         23.26900       18.67300        5.80400
H         22.46100       18.66200        5.04000
H         23.19800       17.72100        6.32600
H         24.30200       18.87100        5.38000
H         20.12700       19.53800        3.39400
C         19.21900       18.86500        3.52200
C         17.96000       19.37300        2.73200
H         19.68300       18.00000        3.12500
H         19.12700       18.64600        4.55300
H         17.02800       18.77800        2.89800
H         18.22600       19.25400        1.66600
C         17.68900       20.75600        2.95100
C         16.57400       21.25400        2.22300
H         17.39400       20.90200        3.99100
H         15.65900       20.77600        2.56600
H         16.66700       21.15500        1.11500
O         18.88300       21.54900        2.73200
H         18.94700       21.59300        1.73600
C         16.43900       22.72500        2.61000
H         17.26100       23.36700        2.24800
H         16.32500       22.87600        3.73300
H         15.57200       23.28000        2.16800


