%chk=C10H24O2_pair_007_027.chk
%nproc=8
%mem=8000Mb
#p opt b3lyp/6-31G**

Conformer number 080. Energy MM = 0.000 kcal/mol

0 1
H         22.93600        0.29600       -1.74400
C         23.63700        0.37400       -0.87600
C         23.09300        1.34700        0.17700
H         23.76600       -0.56100       -0.39100
H         24.65400        0.60800       -1.41100
H         23.43300        2.36100       -0.03900
H         23.52400        1.15900        1.12900
C         21.66200        1.28300        0.28500
C         21.15800        2.28500        1.21100
H         21.32600        1.47000       -0.75100
H         21.54500        3.30200        0.86700
H         21.69200        2.09100        2.15500
O         21.18300        0.01300        0.60600
H         21.62300       -0.62000        0.02700
C         19.65500        2.24600        1.32200
H         19.20800        2.56200        0.32000
H         19.35700        2.99200        2.10500
H         19.21200        1.19500        1.55800
H         20.57400        4.45600        5.43800
C         21.35300        3.93400        4.85200
C         22.59900        3.90600        5.78200
H         20.99200        2.89000        4.54800
H         21.65200        4.54200        3.95100
H         22.44000        3.46500        6.74700
H         22.86400        4.97300        5.89300
C         23.73300        3.18500        5.17800
C         24.85100        2.90300        6.10300
H         23.36700        2.14800        4.92500
H         24.40700        2.19700        6.84400
H         25.26200        3.75400        6.71700
O         24.07300        3.95800        3.96800
H         24.64900        3.51800        3.35900
C         26.08500        2.24900        5.38400
H         26.33700        2.89400        4.58800
H         25.68400        1.33300        4.98900
H         26.88700        2.09800        5.99900


