%chk=C10H24O2_pair_036_078.chk
%nproc=8
%mem=8000Mb
#p opt b3lyp/6-31G**

Conformer number 357. Energy MM = 0.000 kcal/mol

0 1
H         15.86800        5.45700       23.97600
C         15.07300        5.46000       23.20900
C         14.92300        4.13900       22.44600
H         14.09800        5.72200       23.64200
H         15.35700        6.31500       22.60900
H         15.70300        4.03600       21.65500
H         14.00500        4.24700       21.84700
C         14.81000        2.90600       23.25200
C         15.87400        2.65400       24.29300
H         13.84300        3.03300       23.78200
H         15.58400        3.37800       25.05700
H         16.86300        2.96200       23.89900
O         14.63600        1.84300       22.33800
H         14.35400        1.08500       22.86200
C         15.93600        1.29000       24.81600
H         14.92700        0.96600       25.15800
H         16.70600        1.04400       25.53500
H         16.14000        0.63500       23.92100
H         17.02100        4.41500       26.31000
C         17.49500        5.40600       26.32100
C         16.41200        6.53400       26.37300
H         18.21200        5.56500       27.14200
H         18.07600        5.40900       25.35900
H         15.62400        6.32500       25.57100
H         16.87000        7.52600       26.24300
C         15.58300        6.64100       27.61400
C         14.42800        7.50300       27.43800
H         15.19600        5.64200       27.80400
H         13.71000        6.99200       26.69400
H         14.72200        8.41900       26.98700
O         16.43400        6.90300       28.71800
H         16.00500        6.70300       29.53500
C         13.72700        7.88400       28.74300
H         12.98100        8.69500       28.60200
H         14.41500        8.19800       29.52900
H         13.20100        6.98000       29.06000


