%chk=C10H24O2_pair_008_027.chk
%nproc=8
%mem=8000Mb
#p opt b3lyp/6-31G**

Conformer number 095. Energy MM = 0.000 kcal/mol

0 1
H         19.48700        1.80800        8.37300
C         20.53800        2.08400        8.45600
C         21.30900        0.91500        8.96700
H         20.88900        2.48600        7.42000
H         20.63200        2.96900        9.09100
H         21.32100        0.18600        8.13800
H         20.81400        0.45400        9.79300
C         22.65800        1.29300        9.29900
C         23.46200        0.06300        9.48500
H         23.09400        1.85400        8.40400
H         24.44000        0.37200        9.83600
H         23.59000       -0.36000        8.45700
O         22.77400        2.08100       10.44800
H         22.39900        2.94100       10.19400
C         22.90500       -0.87600       10.43300
H         23.73800       -1.55100       10.67700
H         22.03800       -1.42700        9.96700
H         22.70500       -0.42200       11.38000
H         20.57400        4.45600        5.43800
C         21.35300        3.93400        4.85200
C         22.59900        3.90600        5.78200
H         20.99200        2.89000        4.54800
H         21.65200        4.54200        3.95100
H         22.44000        3.46500        6.74700
H         22.86400        4.97300        5.89300
C         23.73300        3.18500        5.17800
C         24.85100        2.90300        6.10300
H         23.36700        2.14800        4.92500
H         24.40700        2.19700        6.84400
H         25.26200        3.75400        6.71700
O         24.07300        3.95800        3.96800
H         24.64900        3.51800        3.35900
C         26.08500        2.24900        5.38400
H         26.33700        2.89400        4.58800
H         25.68400        1.33300        4.98900
H         26.88700        2.09800        5.99900


