%chk=C10H24O2_pair_016_098.chk
%nproc=8
%mem=8000Mb
#p opt b3lyp/6-31G**

Conformer number 181. Energy MM = 0.000 kcal/mol

0 1
H          3.44600        4.42600        3.84400
C          3.06100        5.46500        3.75600
C          3.70400        6.12700        2.53100
H          1.97700        5.46400        3.75800
H          3.46100        5.94700        4.65200
H          3.53300        5.50700        1.60700
H          4.86200        6.18300        2.72200
C          3.24200        7.48400        2.22000
C          3.16700        8.32600        3.40800
H          3.85400        7.94600        1.41100
H          4.08500        8.29200        4.01100
H          2.32800        8.02700        3.98600
O          1.90600        7.49000        1.61500
H          1.41000        6.76000        2.00300
C          3.02400        9.78700        2.98900
H          3.12200       10.61300        3.76000
H          2.15000        9.93500        2.30000
H          3.90000       10.08800        2.32100
H          8.46500        1.73200       -1.51600
C          8.04700        2.17500       -0.61200
C          6.70900        2.82700       -0.87000
H          7.97600        1.34700        0.05300
H          8.70200        2.97700       -0.20400
H          6.37800        3.01700        0.16900
H          5.92100        2.13900       -1.35500
C          6.72000        4.04600       -1.63600
C          5.50700        4.82700       -1.73800
H          7.51000        4.70900       -1.26000
H          5.68700        5.79400       -2.25200
H          5.13700        5.13900       -0.71800
O          7.07700        3.81500       -2.97800
H          8.00400        3.62600       -2.99800
C          4.31200        4.24400       -2.58200
H          4.05000        3.26200       -2.21900
H          4.63700        4.17100       -3.62700
H          3.34000        4.77900       -2.46800


