%chk=C10H24O2_pair_084_087.chk
%nproc=8
%mem=8000Mb
#p opt b3lyp/6-31G**

Conformer number 591. Energy MM = 0.000 kcal/mol

0 1
H         18.16300       13.78300       20.18500
C         18.57900       13.52200       21.13900
C         18.70500       14.75900       22.06900
H         18.02800       12.60900       21.42900
H         19.59300       13.17700       20.85200
H         19.23500       15.46900       21.41700
H         19.46300       14.52300       22.77800
C         17.57600       15.39500       22.67100
C         18.01900       16.69800       23.16500
H         16.81200       15.57400       21.92700
H         18.57400       17.26900       22.51100
H         18.73100       16.56200       24.03500
O         17.11200       14.66900       23.75500
H         16.17100       14.59000       23.68400
C         16.95500       17.64400       23.72900
H         16.53400       17.17100       24.65400
H         16.23700       17.75700       22.96200
H         17.23100       18.64300       24.10100
H         24.28300       10.52500       28.49700
C         24.20700       11.30200       27.65300
C         23.47500       10.56700       26.50000
H         23.61800       12.19500       28.02000
H         25.15500       11.69700       27.37100
H         22.54000       10.10600       26.85600
H         24.11300        9.65900       26.31400
C         23.21900       11.50400       25.38900
C         22.55300       10.97500       24.19700
H         22.68900       12.37300       25.74100
H         21.59100       10.60000       24.51200
H         23.17700       10.13700       23.84500
O         24.56000       11.88500       24.93600
H         25.01200       11.04100       24.79000
C         22.62900       11.95300       23.00000
H         21.78200       11.87300       22.34600
H         23.46500       11.73900       22.36000
H         22.71900       13.02400       23.30900


