%chk=C10H24O2_pair_026_098.chk
%nproc=8
%mem=8000Mb
#p opt b3lyp/6-31G**

Conformer number 277. Energy MM = 0.000 kcal/mol

0 1
H          6.34900       22.80300       26.44900
C          6.75100       22.74700       25.43600
C          8.11000       22.05000       25.35800
H          6.14200       22.24300       24.76600
H          6.93800       23.80100       25.03600
H          8.03100       21.07800       25.85500
H          8.79100       22.63300       25.98300
C          8.63600       21.78400       24.03100
C          8.80000       22.97800       23.28200
H          9.65100       21.23700       24.07200
H          9.60600       23.54400       23.78100
H          7.93500       23.59100       23.27800
O          7.75600       20.94200       23.19100
H          6.84900       20.87700       23.51400
C          9.31900       22.75100       21.84400
H         10.21200       22.13900       21.79300
H          9.53900       23.73000       21.35800
H          8.50800       22.27500       21.24200
H          8.46500       26.19400       22.94600
C          8.04700       26.63700       23.85000
C          6.70900       27.28900       23.59200
H          7.97600       25.80900       24.51500
H          8.70200       27.43900       24.25800
H          6.37800       27.47900       24.63100
H          5.92100       26.60100       23.10700
C          6.72000       28.50800       22.82600
C          5.50700       29.28900       22.72400
H          7.51000       29.17100       23.20200
H          5.68700       30.25600       22.21000
H          5.13700       29.60100       23.74400
O          7.07700       28.27700       21.48400
H          8.00400       28.08800       21.46400
C          4.31200       28.70600       21.88000
H          4.05000       27.72400       22.24300
H          4.63700       28.63300       20.83500
H          3.34000       29.24100       21.99400


