%chk=C10H24O2_pair_023_075.chk
%nproc=8
%mem=8000Mb
#p opt b3lyp/6-31G**

Conformer number 244. Energy MM = 0.000 kcal/mol

0 1
H         23.12400       16.70800       16.55100
C         23.73700       16.97000       15.66200
C         23.58600       18.37600       15.11100
H         24.78300       16.72900       15.93400
H         23.46100       16.19000       14.89900
H         24.24700       18.54000       14.30400
H         23.74600       19.14700       15.94400
C         22.29300       18.67900       14.57200
C         22.30600       19.92300       13.86100
H         21.93700       17.92500       13.80000
H         23.16300       20.02100       13.24300
H         22.47500       20.71300       14.56800
O         21.22000       18.63900       15.51300
H         20.39000       18.87000       15.09300
C         21.10500       20.22500       12.99100
H         20.14500       20.03800       13.64800
H         21.03200       19.59400       12.08900
H         21.10100       21.35700       12.73600
H         25.11800       23.14800       13.12200
C         25.46300       22.09400       12.81500
C         26.92100       22.06600       12.34900
H         25.27200       21.45600       13.73500
H         24.73400       21.81100       12.07000
H         27.55100       21.63500       13.17700
H         27.37600       23.06800       12.18800
C         27.12900       21.17700       11.16900
C         26.67300       19.79100       11.35100
H         26.54200       21.63700       10.39100
H         25.66000       19.68200       11.69500
H         27.34300       19.38800       12.18000
O         28.49000       21.12700       10.87300
H         28.93100       20.80400       11.69600
C         26.72100       18.75000       10.15600
H         26.47100       17.76700       10.69500
H         27.67400       18.86200        9.62600
H         25.97000       18.83600        9.36400


