%chk=C10H24O2_pair_021_035.chk
%nproc=8
%mem=8000Mb
#p opt b3lyp/6-31G**

Conformer number 223. Energy MM = 0.000 kcal/mol

0 1
H         25.03800        3.06400       14.60200
C         24.04000        2.94400       14.35300
C         23.41800        4.29600       14.16800
H         23.94800        2.29900       13.46900
H         23.54200        2.29000       15.15400
H         23.45200        4.78600       15.13600
H         22.30200        4.19200       13.81100
C         24.15900        5.14700       13.23500
C         23.52600        6.48400       13.08600
H         25.15100        5.32800       13.61100
H         22.43000        6.29300       12.80900
H         23.94400        6.96700       12.15300
O         24.10500        4.53600       11.91400
H         24.59500        3.73900       11.88400
C         23.58300        7.37300       14.35900
H         24.62300        7.59400       14.51700
H         23.12900        6.88700       15.22600
H         23.09700        8.33900       14.14500
H         26.86100        1.38200       21.67800
C         26.15400        1.13400       20.84400
C         26.84200        1.00300       19.56200
H         25.56000        0.26700       21.13000
H         25.50500        1.95100       20.89400
H         27.58100        0.17000       19.76600
H         27.40700        1.95200       19.26800
C         26.08500        0.63700       18.35200
C         26.90000        0.50500       17.19300
H         25.67800       -0.35200       18.55200
H         27.62900       -0.26500       17.49900
H         27.45600        1.51000       17.08500
O         24.95800        1.49000       18.24000
H         24.36700        0.94500       17.79000
C         26.28100        0.16800       15.89000
H         27.09100        0.15900       15.17800
H         25.54200        0.97200       15.70200
H         25.70800       -0.82000       15.81600


