%chk=C10H24O2_pair_058_066.chk
%nproc=8
%mem=8000Mb
#p opt b3lyp/6-31G**

Conformer number 495. Energy MM = 0.000 kcal/mol

0 1
H         14.73700       17.79000        6.31100
C         15.24700       18.61500        5.79500
C         14.44400       19.96100        5.76100
H         16.24000       18.70100        6.18100
H         15.38300       18.37300        4.75100
H         15.07600       20.79200        5.32800
H         14.28000       20.17600        6.87600
C         13.23600       19.80000        4.96600
C         12.47900       21.05200        4.70800
H         13.59500       19.38300        3.96500
H         12.34700       21.71100        5.61500
H         11.51500       20.60600        4.40100
O         12.31700       18.88500        5.46100
H         12.72900       18.01000        5.21700
C         13.01200       21.91200        3.57800
H         12.33500       22.72600        3.30800
H         13.04200       21.33000        2.61600
H         14.02500       22.27700        3.74000
H         13.19000       24.55400        5.16800
C         14.04300       25.25200        5.36700
C         14.46200       26.00200        4.11500
H         13.73900       25.83300        6.28600
H         15.03900       24.73900        5.77500
H         13.69400       26.72100        3.71100
H         14.69700       25.29100        3.24000
C         15.67300       26.76700        4.38200
C         16.90900       26.05000        4.66000
H         15.81300       27.31400        3.46400
H         17.11000       25.21300        3.94800
H         16.81700       25.42500        5.55300
O         15.24700       27.78500        5.28800
H         15.04600       27.26400        6.11200
C         18.13800       27.00300        4.82500
H         18.35500       27.13600        5.88100
H         18.12000       27.98800        4.35800
H         19.08700       26.52900        4.50600


