%chk=C10H24O2_pair_011_056.chk
%nproc=8
%mem=8000Mb
#p opt b3lyp/6-31G**

Conformer number 126. Energy MM = 0.000 kcal/mol

0 1
H         15.74100        9.60700       25.29400
C         16.74000        9.67100       24.77600
C         16.84900        8.56900       23.64800
H         16.90400       10.70700       24.27000
H         17.57500        9.62400       25.44800
H         16.48200        8.96500       22.69800
H         16.19000        7.76200       23.92400
C         18.18900        8.11500       23.42100
C         19.11500        9.16300       22.96000
H         18.54400        7.66500       24.39500
H         19.99400        8.73100       22.53100
H         19.36300        9.86000       23.79000
O         18.25600        7.02700       22.46700
H         17.95700        7.32300       21.62200
C         18.59300       10.00800       21.70400
H         17.48600       10.30500       21.70300
H         18.70500        9.32400       20.85700
H         19.24100       10.84400       21.43000
H         12.74100        9.42200       23.38300
C         12.68000        8.63600       24.15200
C         12.46700        9.32800       25.49400
H         11.81600        7.91700       24.03700
H         13.64500        8.07300       24.14700
H         13.46500        9.85000       25.84600
H         12.32100        8.57000       26.33300
C         11.37300       10.24300       25.72700
C         11.33900       10.57400       27.16700
H         11.45300       11.20900       25.19300
H         11.41300        9.68400       27.86200
H         10.42400       11.10200       27.42100
O         10.11900        9.62000       25.42800
H         10.09500        8.78500       25.91300
C         12.38500       11.62300       27.52400
H         13.44200       11.33100       27.39700
H         12.42200       11.83200       28.57200
H         12.17100       12.50000       26.93800


