%chk=C10H24O2_pair_002_085.chk
%nproc=8
%mem=8000Mb
#p opt b3lyp/6-31G**

Conformer number 033. Energy MM = 0.000 kcal/mol

0 1
H         22.43700       20.29800       10.86400
C         22.75800       20.08000        9.82200
C         21.79600       20.58700        8.74700
H         23.79600       20.42400        9.67500
H         22.74100       18.94300        9.83700
H         21.93800       21.61100        8.44500
H         20.80700       20.47200        9.17600
C         21.77300       19.71800        7.56400
C         22.97900       19.84100        6.81400
H         21.74000       18.69200        7.88300
H         23.92500       19.82300        7.46100
H         22.86700       20.68300        6.10100
O         20.60400       19.77900        6.67500
H         20.68100       20.54200        6.10600
C         23.26900       18.67300        5.80400
H         22.46100       18.66200        5.04000
H         23.19800       17.72100        6.32600
H         24.30200       18.87100        5.38000
H         18.01800       15.73400        5.93300
C         18.51600       16.47900        6.62200
C         17.86100       16.73700        8.03000
H         19.58700       16.41300        6.82100
H         18.30600       17.43100        6.01700
H         17.81000       15.82700        8.68200
H         16.80800       16.85300        7.65500
C         18.34400       17.92700        8.70600
C         17.81800       18.17400       10.01100
H         19.42400       17.71700        8.90500
H         18.31200       19.01500       10.57900
H         18.06700       17.30600       10.64800
O         18.15500       19.01200        7.89700
H         18.94600       19.22700        7.43200
C         16.29900       18.20500       10.04900
H         15.87400       18.86800        9.23200
H         15.95200       18.68300       11.05900
H         15.85900       17.25500        9.93800


