%chk=C10H24O2_pair_061_076.chk
%nproc=8
%mem=8000Mb
#p opt b3lyp/6-31G**

Conformer number 512. Energy MM = 0.000 kcal/mol

0 1
H          6.34400       17.03700       10.49900
C          5.94600       16.12800       10.92900
C          4.87900       15.67400        9.96900
H          6.63700       15.32700       11.11600
H          5.53000       16.39700       11.89700
H          4.05100       16.39900        9.96100
H          4.42200       14.76500       10.45900
C          5.36000       15.38100        8.62600
C          5.45400       16.61000        7.75100
H          6.39300       14.97100        8.64100
H          6.08200       17.39900        8.25400
H          4.42500       17.07300        7.68200
O          4.60400       14.30000        8.01100
H          3.71600       14.65700        8.00800
C          6.09400       16.50300        6.35000
H          7.21900       16.67400        6.45500
H          5.77700       17.25700        5.69900
H          5.94100       15.52400        5.89300
H          7.51500       11.99200        4.51700
C          6.40400       12.17000        4.43500
C          5.75700       12.17400        5.79500
H          6.17200       13.08700        3.92900
H          6.01000       11.35400        3.83800
H          4.90300       11.52500        5.84600
H          5.45200       13.15400        5.97900
C          6.62200       11.71500        6.94100
C          7.16100       10.33400        6.99400
H          7.61400       12.33500        7.05500
H          7.43300       10.18200        8.06100
H          8.08600       10.18500        6.35400
O          5.78300       11.82600        8.08100
H          5.55000       12.70700        8.05500
C          6.25100        9.15100        6.72100
H          6.91100        8.24600        6.84300
H          5.71400        9.24300        5.75300
H          5.53800        9.04800        7.59200


