%chk=C10H24O2_pair_001_024.chk
%nproc=8
%mem=8000Mb
#p opt b3lyp/6-31G**

Conformer number 014. Energy MM = 0.000 kcal/mol

0 1
H         15.44800       12.97300       17.13200
C         15.79600       12.90600       18.11800
C         15.40400       14.17100       18.92200
H         15.14500       12.12200       18.50300
H         16.78800       12.61400       18.20000
H         15.60000       13.89900       19.98900
H         14.31100       14.39400       18.79000
C         16.11100       15.32100       18.49100
C         15.84500       16.63600       19.19500
H         17.19700       15.07300       18.62700
H         15.78500       16.48600       20.25100
H         14.85000       17.02100       18.92300
O         15.97100       15.61000       17.10900
H         16.32800       16.49800       16.89100
C         17.04400       17.72700       19.04200
H         17.03600       18.57200       19.65100
H         17.07300       18.10200       18.03400
H         17.95000       17.14600       19.34800
H         12.98600       12.00000       18.39500
C         12.26400       11.52800       17.60400
C         11.25800       10.65000       18.23200
H         11.66100       12.35900       17.25300
H         12.76800       11.01800       16.74500
H         10.45800       10.38700       17.48800
H         10.77300       11.32000       18.93500
C         11.71600        9.44600       18.94400
C         10.63700        8.66800       19.43100
H         12.23500        8.73200       18.30300
H          9.97700        8.46600       18.52400
H         10.00000        9.19400       20.10100
O         12.79200        9.73100       19.85600
H         12.37900       10.24700       20.61400
C         11.04900        7.36200       20.01500
H         10.24100        6.69800       20.27800
H         11.68700        7.63100       20.90200
H         11.62900        6.79500       19.31000


