%chk=C10H24O2_pair_011_012.chk
%nproc=8
%mem=8000Mb
#p opt b3lyp/6-31G**

Conformer number 118. Energy MM = 0.000 kcal/mol

0 1
H         15.74100        9.60700       25.29400
C         16.74000        9.67100       24.77600
C         16.84900        8.56900       23.64800
H         16.90400       10.70700       24.27000
H         17.57500        9.62400       25.44800
H         16.48200        8.96500       22.69800
H         16.19000        7.76200       23.92400
C         18.18900        8.11500       23.42100
C         19.11500        9.16300       22.96000
H         18.54400        7.66500       24.39500
H         19.99400        8.73100       22.53100
H         19.36300        9.86000       23.79000
O         18.25600        7.02700       22.46700
H         17.95700        7.32300       21.62200
C         18.59300       10.00800       21.70400
H         17.48600       10.30500       21.70300
H         18.70500        9.32400       20.85700
H         19.24100       10.84400       21.43000
H         16.19600       15.39300       26.26500
C         16.69700       15.55200       27.22000
C         17.45200       14.35400       27.76700
H         17.45100       16.37400       27.06200
H         15.96800       15.91200       27.93500
H         16.75400       13.77600       28.31400
H         18.21700       14.63500       28.52700
C         18.09900       13.51200       26.70500
C         19.06500       12.54500       27.17100
H         17.31900       12.90400       26.22800
H         18.52100       11.77800       27.70300
H         19.73900       12.96200       27.88800
O         18.75800       14.38700       25.72400
H         18.14600       14.53800       24.98600
C         19.82400       11.83200       26.07800
H         20.69700       11.51300       26.66300
H         20.29300       12.53400       25.31800
H         19.39400       10.93600       25.65400


