%chk=C10H24O2_pair_004_027.chk
%nproc=8
%mem=8000Mb
#p opt b3lyp/6-31G**

Conformer number 049. Energy MM = 0.000 kcal/mol

0 1
H         17.94100       21.31000        5.92100
C         17.92600       22.31100        6.41200
C         18.84500       23.41300        5.80800
H         16.85500       22.61200        6.36000
H         18.15400       22.09200        7.47900
H         18.69300       24.37200        6.27100
H         18.40700       23.63300        4.75500
C         20.24900       23.03900        5.71800
C         21.16700       24.00600        5.10300
H         20.65900       23.01200        6.75300
H         22.18200       23.62000        5.14700
H         21.15700       24.90100        5.75800
O         20.47700       21.75300        5.15900
H         19.95400       21.81200        4.31000
C         20.90200       24.42100        3.67100
H         21.52700       25.25900        3.29300
H         19.88900       24.81000        3.50200
H         21.07800       23.55700        3.01100
H         20.57400       28.91800        5.43800
C         21.35300       28.39600        4.85200
C         22.59900       28.36800        5.78200
H         20.99200       27.35200        4.54800
H         21.65200       29.00400        3.95100
H         22.44000       27.92700        6.74700
H         22.86400       29.43500        5.89300
C         23.73300       27.64700        5.17800
C         24.85100       27.36500        6.10300
H         23.36700       26.61000        4.92500
H         24.40700       26.65900        6.84400
H         25.26200       28.21600        6.71700
O         24.07300       28.42000        3.96800
H         24.64900       27.98000        3.35900
C         26.08500       26.71100        5.38400
H         26.33700       27.35600        4.58800
H         25.68400       25.79500        4.98900
H         26.88700       26.56000        5.99900


