%chk=C10H24O2_pair_050_070.chk
%nproc=8
%mem=8000Mb
#p opt b3lyp/6-31G**

Conformer number 452. Energy MM = 0.000 kcal/mol

0 1
H         14.20200       13.56400       13.91700
C         14.13800       13.81000       14.98300
C         12.81000       14.60300       15.18900
H         14.18200       12.87100       15.50300
H         15.03400       14.39900       15.26200
H         12.01200       13.83400       15.05700
H         12.68900       15.36200       14.39600
C         12.63000       15.05400       16.49700
C         11.26700       15.34200       16.89200
H         12.92800       14.25300       17.17800
H         10.55800       14.56200       16.44200
H         11.03300       16.32800       16.46400
O         13.47400       16.16900       16.71100
H         14.35600       15.77200       16.60200
C         11.22800       15.44000       18.39000
H         10.31000       15.92900       18.77100
H         11.94300       16.19900       18.75900
H         11.39400       14.46600       18.85900
H          9.33800       22.45200       19.03400
C          8.62800       22.05300       18.40100
C          9.21200       21.34100       17.16200
H          8.02300       21.44100       19.05000
H          8.01800       22.84000       17.96500
H          9.89100       22.05500       16.64500
H          8.42500       21.18400       16.37900
C          9.95900       20.09500       17.31800
C         10.10000       19.60500       15.94800
H         10.96600       20.17300       17.72400
H          9.08900       19.38900       15.52300
H         10.51500       18.60500       16.05400
O          9.25200       19.17200       18.14000
H          9.32700       19.52900       19.02200
C         10.90400       20.40200       14.94000
H         11.07500       19.80100       14.00500
H         11.92600       20.62400       15.35000
H         10.37100       21.34200       14.68200


