%chk=C10H24O2_pair_068_083.chk
%nproc=8
%mem=8000Mb
#p opt b3lyp/6-31G**

Conformer number 543. Energy MM = 0.000 kcal/mol

0 1
H          3.07600       16.26600       20.28000
C          2.53400       16.61900       19.47400
C          2.39800       15.57700       18.37600
H          3.10900       17.46500       19.12800
H          1.58000       17.10200       19.86400
H          3.40900       15.35100       18.18700
H          1.80700       15.88900       17.52800
C          1.75500       14.36900       18.88500
C          0.34300       14.43700       19.37400
H          2.39300       13.92800       19.67100
H         -0.22600       14.73300       18.50800
H          0.11000       15.23100       20.10700
O          1.77800       13.31300       17.84800
H          2.70000       13.28500       17.50300
C         -0.17000       13.01700       19.91900
H          0.25700       12.66400       20.85900
H          0.04200       12.23100       19.20800
H         -1.25400       12.90500       20.10000
H          7.92700       16.04000       18.90300
C          7.12300       16.78700       19.18000
C          6.08900       16.75100       18.09400
H          6.67500       16.56500       20.14300
H          7.59400       17.78400       19.24100
H          5.25700       17.52100       18.29000
H          5.57800       15.75700       18.01600
C          6.74300       17.08900       16.78900
C          7.74900       16.14800       16.24200
H          6.04400       17.06700       15.96700
H          7.09400       15.17100       16.13800
H          8.53000       15.84400       16.89900
O          7.13600       18.49500       16.78600
H          7.76900       18.47100       17.53300
C          8.24500       16.60600       14.84300
H          9.06300       16.08400       14.54700
H          8.49500       17.66200       14.94300
H          7.52400       16.52300       14.07600


