%chk=C10H24O2_pair_038_088.chk
%nproc=8
%mem=8000Mb
#p opt b3lyp/6-31G**

Conformer number 376. Energy MM = 0.000 kcal/mol

0 1
H          5.92600        5.14200       14.41800
C          6.73900        5.37500       13.63200
C          7.94900        6.10000       14.27400
H          7.02800        4.49900       13.05400
H          6.21000        6.06500       12.94900
H          8.78100        6.08600       13.57900
H          8.17400        5.72300       15.32000
C          7.65200        7.48500       14.58600
C          8.55500        8.32700       15.40500
H          7.60000        8.00800       13.63600
H          9.60200        8.29900       15.07500
H          8.54100        7.95900       16.41900
O          6.39200        7.57900       15.23900
H          5.68800        7.08200       14.79900
C          8.07000        9.74700       15.30300
H          7.20900       10.00400       15.89800
H          7.83300        9.94000       14.22100
H          8.78000       10.51300       15.55600
H          3.19100       10.15600       20.56400
C          3.51100        9.62500       19.63100
C          4.69000        8.71200       19.88700
H          2.60100        9.09200       19.44400
H          3.76400       10.35500       18.83800
H          4.42800        7.92400       20.60600
H          5.51300        9.29500       20.34600
C          5.13900        7.91700       18.73700
C          6.00500        6.78800       19.20400
H          4.17700        7.49100       18.37200
H          5.39000        5.89700       19.51700
H          6.57300        7.05000       20.19000
O          5.60400        8.73800       17.65300
H          6.02800        8.10800       17.06600
C          7.10600        6.29300       18.23900
H          7.62900        5.37600       18.59900
H          7.85200        7.05300       18.15500
H          6.66400        5.97100       17.31300


