%chk=C10H24O2_pair_016_081.chk
%nproc=8
%mem=8000Mb
#p opt b3lyp/6-31G**

Conformer number 176. Energy MM = 0.000 kcal/mol

0 1
H          3.44600        4.42600        3.84400
C          3.06100        5.46500        3.75600
C          3.70400        6.12700        2.53100
H          1.97700        5.46400        3.75800
H          3.46100        5.94700        4.65200
H          3.53300        5.50700        1.60700
H          4.86200        6.18300        2.72200
C          3.24200        7.48400        2.22000
C          3.16700        8.32600        3.40800
H          3.85400        7.94600        1.41100
H          4.08500        8.29200        4.01100
H          2.32800        8.02700        3.98600
O          1.90600        7.49000        1.61500
H          1.41000        6.76000        2.00300
C          3.02400        9.78700        2.98900
H          3.12200       10.61300        3.76000
H          2.15000        9.93500        2.30000
H          3.90000       10.08800        2.32100
H          0.70300        8.42900       -4.03700
C          0.90700        7.67000       -3.20500
C          0.64400        8.11100       -1.77300
H          0.19200        6.86200       -3.52400
H          1.94100        7.33700       -3.25200
H          0.72900        7.26200       -1.03200
H         -0.46700        8.44900       -1.70700
C          1.58200        9.15100       -1.24200
C          3.04200        8.87900       -1.37600
H          1.47400       10.20200       -1.66600
H          3.26000        8.85600       -2.42600
H          3.25500        7.85000       -1.00000
O          1.32600        9.53400        0.13900
H          1.56500        8.77400        0.64100
C          3.97800        9.89100       -0.68200
H          3.70900       10.27100        0.34100
H          4.04400       10.77300       -1.29900
H          5.01600        9.38600       -0.66600


