%chk=C10H24O2_pair_044_047.chk
%nproc=8
%mem=8000Mb
#p opt b3lyp/6-31G**

Conformer number 417. Energy MM = 0.000 kcal/mol

0 1
H         23.76700        7.80800        5.46700
C         24.15700        7.45000        4.45700
C         23.00100        7.07800        3.48900
H         24.81600        8.31800        4.10700
H         24.83800        6.67600        4.70600
H         22.43400        7.96700        3.40100
H         22.31800        6.37500        3.92700
C         23.36100        6.65600        2.14500
C         22.29900        6.27400        1.19500
H         23.88400        7.42000        1.65200
H         21.80900        5.33300        1.51000
H         22.91300        5.95500        0.35300
O         24.26000        5.62800        2.18100
H         23.91400        4.97800        2.75200
C         21.25000        7.29900        0.82200
H         21.80400        8.15200        0.35500
H         20.56800        7.55900        1.69600
H         20.43300        6.85900        0.15300
H         20.52600        6.99500        5.88800
C         20.09500        7.64100        5.11500
C         18.97300        8.50600        5.66800
H         20.90400        8.34600        4.96200
H         19.78800        7.02800        4.17500
H         19.29300        8.91300        6.59500
H         18.11200        7.82000        6.00000
C         18.30300        9.48300        4.78400
C         17.15400       10.05200        5.46800
H         19.09900       10.24700        4.60700
H         17.48200       10.61400        6.36400
H         16.53700        9.20200        5.86100
O         17.97700        8.97000        3.50000
H         17.35200        8.25800        3.65100
C         16.16200       10.91500        4.71600
H         15.38000       11.23000        5.40700
H         15.69900       10.38200        3.88500
H         16.68000       11.77600        4.28000


