%chk=C10H24O2_pair_026_059.chk
%nproc=8
%mem=8000Mb
#p opt b3lyp/6-31G**

Conformer number 269. Energy MM = 0.000 kcal/mol

0 1
H          6.34900       22.80300       26.44900
C          6.75100       22.74700       25.43600
C          8.11000       22.05000       25.35800
H          6.14200       22.24300       24.76600
H          6.93800       23.80100       25.03600
H          8.03100       21.07800       25.85500
H          8.79100       22.63300       25.98300
C          8.63600       21.78400       24.03100
C          8.80000       22.97800       23.28200
H          9.65100       21.23700       24.07200
H          9.60600       23.54400       23.78100
H          7.93500       23.59100       23.27800
O          7.75600       20.94200       23.19100
H          6.84900       20.87700       23.51400
C          9.31900       22.75100       21.84400
H         10.21200       22.13900       21.79300
H          9.53900       23.73000       21.35800
H          8.50800       22.27500       21.24200
H          6.07100       19.73600       21.29400
C          5.48200       20.32900       20.54900
C          5.11400       21.74500       21.13900
H          6.13100       20.53600       19.67000
H          4.58800       19.74500       20.12800
H          4.72500       22.48200       20.37600
H          5.94300       22.19700       21.60500
C          4.23200       21.46900       22.26800
C          3.44700       22.67800       22.58100
H          3.37200       20.84200       21.82200
H          2.80900       23.02400       21.67400
H          4.15100       23.50700       22.72300
O          4.91300       20.90000       23.37000
H          4.20100       20.43800       23.90700
C          2.39200       22.42000       23.66800
H          1.73000       21.59100       23.32300
H          2.00900       23.39400       23.96100
H          2.95100       22.15600       24.65700


