%chk=C10H24O2_pair_074_094.chk
%nproc=8
%mem=8000Mb
#p opt b3lyp/6-31G**

Conformer number 570. Energy MM = 0.000 kcal/mol

0 1
H          5.80000       14.70800       13.78100
C          4.77100       14.52600       13.45200
C          4.02800       13.95100       14.59500
H          4.40600       15.50100       13.09600
H          4.90600       13.76000       12.60400
H          3.11200       13.48300       14.23300
H          3.63300       14.69700       15.29600
C          4.72100       12.98900       15.45600
C          5.46300       11.84900       14.89700
H          5.41100       13.64300       16.03900
H          5.85400       11.29600       15.76700
H          6.43500       12.13900       14.31000
O          3.79800       12.54400       16.44800
H          4.37000       12.14700       17.12000
C          4.60700       10.87800       14.22000
H          3.53800       10.99100       14.50500
H          4.90000        9.82000       14.39900
H          4.66300       11.15600       13.17200
H         -1.42400       13.46800       12.92900
C         -0.73300       13.34800       13.82200
C         -0.76400       11.92400       14.38900
H          0.31700       13.71100       13.57000
H         -1.20800       14.13500       14.55700
H         -0.42100       11.25300       13.59600
H         -1.85300       11.70000       14.63200
C          0.11100       11.69600       15.55300
C          0.21900       10.29400       15.92400
H          1.17100       12.09600       15.28800
H          0.57700        9.61000       15.10700
H         -0.88000        9.95400       15.87900
O         -0.38200       12.50600       16.65700
H          0.31700       12.86300       17.23600
C          0.97200        9.97500       17.28200
H          1.03700        8.94500       17.61000
H          0.60800       10.50200       18.15500
H          2.04000       10.34900       17.15000


