%chk=C10H24O2_pair_004_008.chk
%nproc=8
%mem=8000Mb
#p opt b3lyp/6-31G**

Conformer number 048. Energy MM = 0.000 kcal/mol

0 1
H         17.94100       21.31000        5.92100
C         17.92600       22.31100        6.41200
C         18.84500       23.41300        5.80800
H         16.85500       22.61200        6.36000
H         18.15400       22.09200        7.47900
H         18.69300       24.37200        6.27100
H         18.40700       23.63300        4.75500
C         20.24900       23.03900        5.71800
C         21.16700       24.00600        5.10300
H         20.65900       23.01200        6.75300
H         22.18200       23.62000        5.14700
H         21.15700       24.90100        5.75800
O         20.47700       21.75300        5.15900
H         19.95400       21.81200        4.31000
C         20.90200       24.42100        3.67100
H         21.52700       25.25900        3.29300
H         19.88900       24.81000        3.50200
H         21.07800       23.55700        3.01100
H         19.48700       26.27000        8.37300
C         20.53800       26.54600        8.45600
C         21.30900       25.37700        8.96700
H         20.88900       26.94800        7.42000
H         20.63200       27.43100        9.09100
H         21.32100       24.64800        8.13800
H         20.81400       24.91600        9.79300
C         22.65800       25.75500        9.29900
C         23.46200       24.52500        9.48500
H         23.09400       26.31600        8.40400
H         24.44000       24.83400        9.83600
H         23.59000       24.10200        8.45700
O         22.77400       26.54300       10.44800
H         22.39900       27.40300       10.19400
C         22.90500       23.58600       10.43300
H         23.73800       22.91100       10.67700
H         22.03800       23.03500        9.96700
H         22.70500       24.04000       11.38000


