%chk=C10H24O2_pair_033_038.chk
%nproc=8
%mem=8000Mb
#p opt b3lyp/6-31G**

Conformer number 331. Energy MM = 0.000 kcal/mol

0 1
H         14.06500        2.54300        9.94500
C         13.09600        2.48300        9.50300
C         12.06700        3.32400       10.10500
H         13.23200        2.72000        8.45400
H         12.75200        1.43400        9.52400
H         11.14600        3.11500        9.58300
H         12.34100        4.37200        9.91600
C         11.87500        3.13700       11.52900
C         11.40200        4.43500       12.08700
H         11.07600        2.39100       11.78000
H         10.78700        4.99100       11.41900
H         12.33900        4.91500       12.20600
O         13.14900        2.76100       12.21000
H         13.09700        1.74800       12.29100
C         10.76300        4.10600       13.43100
H          9.83500        3.58800       13.28900
H         10.56500        4.84400       14.20400
H         11.31800        3.33100       13.95100
H          5.92600        5.14200       14.41800
C          6.73900        5.37500       13.63200
C          7.94900        6.10000       14.27400
H          7.02800        4.49900       13.05400
H          6.21000        6.06500       12.94900
H          8.78100        6.08600       13.57900
H          8.17400        5.72300       15.32000
C          7.65200        7.48500       14.58600
C          8.55500        8.32700       15.40500
H          7.60000        8.00800       13.63600
H          9.60200        8.29900       15.07500
H          8.54100        7.95900       16.41900
O          6.39200        7.57900       15.23900
H          5.68800        7.08200       14.79900
C          8.07000        9.74700       15.30300
H          7.20900       10.00400       15.89800
H          7.83300        9.94000       14.22100
H          8.78000       10.51300       15.55600


