%chk=C10H24O2_pair_060_071.chk
%nproc=8
%mem=8000Mb
#p opt b3lyp/6-31G**

Conformer number 506. Energy MM = 0.000 kcal/mol

0 1
H         19.28800        5.79900        9.92400
C         19.87400        6.62400        9.54300
C         21.19400        6.23900        8.88700
H         19.25300        7.06100        8.75600
H         19.97800        7.41400       10.33700
H         21.46400        7.15200        8.29400
H         20.91400        5.46300        8.12600
C         22.36400        5.81500        9.64100
C         23.51500        5.39500        8.81600
H         22.67700        6.68400       10.28000
H         23.22200        4.71800        8.00300
H         24.23300        4.84100        9.45700
O         21.96500        4.73800       10.45500
H         22.65900        4.79400       11.15800
C         24.34800        6.54600        8.25100
H         23.78600        7.22000        7.63900
H         25.12700        6.21400        7.62800
H         24.87100        7.18400        8.96000
H         26.66500        7.36400       12.83200
C         27.35600        7.21000       11.92200
C         28.69100        8.08400       11.92200
H         27.54700        6.08800       11.99900
H         26.73400        7.45600       10.94900
H         29.22800        7.93900       12.86200
H         28.41000        9.12500       12.05600
C         29.69800        7.82300       10.88600
C         30.80700        8.73000       11.03400
H         30.07000        6.76500       11.11100
H         30.92000        8.86900       12.08800
H         30.59600        9.70100       10.72600
O         29.17600        7.73300        9.57000
H         28.75100        8.60300        9.41100
C         32.05000        8.21700       10.28000
H         31.85100        8.28600        9.20400
H         32.44800        7.20300       10.55500
H         32.81000        9.02100       10.51400


