%chk=C10H24O2_pair_023_055.chk
%nproc=8
%mem=8000Mb
#p opt b3lyp/6-31G**

Conformer number 240. Energy MM = 0.000 kcal/mol

0 1
H         23.12400       16.70800       16.55100
C         23.73700       16.97000       15.66200
C         23.58600       18.37600       15.11100
H         24.78300       16.72900       15.93400
H         23.46100       16.19000       14.89900
H         24.24700       18.54000       14.30400
H         23.74600       19.14700       15.94400
C         22.29300       18.67900       14.57200
C         22.30600       19.92300       13.86100
H         21.93700       17.92500       13.80000
H         23.16300       20.02100       13.24300
H         22.47500       20.71300       14.56800
O         21.22000       18.63900       15.51300
H         20.39000       18.87000       15.09300
C         21.10500       20.22500       12.99100
H         20.14500       20.03800       13.64800
H         21.03200       19.59400       12.08900
H         21.10100       21.35700       12.73600
H         27.48500       17.04200       15.56300
C         27.65500       17.73500       14.67900
C         27.34600       19.22200       15.16500
H         28.67000       17.65100       14.40200
H         27.08900       17.47800       13.75400
H         26.41200       19.42900       15.65800
H         27.24300       19.77300       14.21400
C         28.44400       19.79400       16.00800
C         28.24800       21.24000       16.21100
H         28.46300       19.16300       16.90500
H         27.21300       21.53500       16.53800
H         28.28100       21.70500       15.17700
O         29.69800       19.67400       15.34000
H         30.38800       19.51200       15.97700
C         29.26900       21.98600       17.08200
H         29.17900       21.84500       18.18800
H         29.14200       23.06800       16.94400
H         30.31700       21.61800       16.88700


