%chk=C10H24O2_pair_025_061.chk
%nproc=8
%mem=8000Mb
#p opt b3lyp/6-31G**

Conformer number 260. Energy MM = 0.000 kcal/mol

0 1
H         25.72800       15.69600       13.03600
C         25.00500       15.99900       12.31700
C         25.24100       15.23700       11.00800
H         24.09100       15.60900       12.67300
H         25.11800       17.06300       12.17700
H         25.10000       14.24400       11.40600
H         26.33000       15.23100       10.75000
C         24.32000       15.53000        9.95400
C         22.98600       15.98700       10.30300
H         24.65200       16.36600        9.23800
H         22.95400       16.93900       10.88700
H         22.50600       15.29100       11.06400
O         24.28700       14.46700        9.04800
H         23.50800       13.96500        9.21300
C         22.07600       16.12000        9.13000
H         21.06100       16.41900        9.54100
H         21.86100       15.18600        8.67700
H         22.49900       16.88600        8.35500
H         30.80600       17.03700       10.49900
C         30.40800       16.12800       10.92900
C         29.34100       15.67400        9.96900
H         31.09900       15.32700       11.11600
H         29.99200       16.39700       11.89700
H         28.51300       16.39900        9.96100
H         28.88400       14.76500       10.45900
C         29.82200       15.38100        8.62600
C         29.91600       16.61000        7.75100
H         30.85500       14.97100        8.64100
H         30.54400       17.39900        8.25400
H         28.88700       17.07300        7.68200
O         29.06600       14.30000        8.01100
H         28.17800       14.65700        8.00800
C         30.55600       16.50300        6.35000
H         31.68100       16.67400        6.45500
H         30.23900       17.25700        5.69900
H         30.40300       15.52400        5.89300


