%chk=C10H24O2_pair_019_095.chk
%nproc=8
%mem=8000Mb
#p opt b3lyp/6-31G**

Conformer number 210. Energy MM = 0.000 kcal/mol

0 1
H          9.76000       13.63700       22.33400
C         10.39200       13.75300       21.44800
C         11.89400       13.59800       21.70700
H         10.08900       12.91300       20.81400
H         10.21800       14.71500       20.98400
H         12.29000       14.44400       22.30500
H         12.45400       13.76100       20.73400
C         12.40300       12.25200       22.09600
C         13.81100       11.91600       21.85200
H         12.27200       12.32000       23.18300
H         14.20700       11.95700       20.80400
H         14.00100       10.81000       22.07400
O         11.50900       11.22500       21.61800
H         10.66400       11.32400       22.08900
C         14.65900       12.75300       22.77300
H         15.73200       12.55400       22.79400
H         14.16400       12.68500       23.77100
H         14.50900       13.81100       22.51300
H         12.19600       16.87700       21.16300
C         12.44500       17.92000       21.52300
C         11.39400       18.94000       21.04000
H         12.69100       17.88700       22.67400
H         13.40700       18.00000       21.00400
H         11.26200       18.89900       19.94200
H         11.84700       19.95300       21.04800
C         10.09600       18.82200       21.65300
C          9.53400       17.47500       21.76000
H         10.14900       19.27100       22.76500
H         10.13500       16.71800       22.36400
H          9.38800       17.07600       20.71500
O          9.22000       19.65200       20.90600
H          8.74100       20.12800       21.59200
C          8.13500       17.46000       22.37200
H          7.83000       16.43300       22.37000
H          7.48700       18.05800       21.76300
H          8.19400       17.83700       23.38900


