%chk=C10H24O2_pair_081_082.chk
%nproc=8
%mem=8000Mb
#p opt b3lyp/6-31G**

Conformer number 581. Energy MM = 0.000 kcal/mol

0 1
H          0.70300        8.42900       20.42500
C          0.90700        7.67000       21.25700
C          0.64400        8.11100       22.68900
H          0.19200        6.86200       20.93800
H          1.94100        7.33700       21.21000
H          0.72900        7.26200       23.43000
H         -0.46700        8.44900       22.75500
C          1.58200        9.15100       23.22000
C          3.04200        8.87900       23.08600
H          1.47400       10.20200       22.79600
H          3.26000        8.85600       22.03600
H          3.25500        7.85000       23.46200
O          1.32600        9.53400       24.60100
H          1.56500        8.77400       25.10300
C          3.97800        9.89100       23.78000
H          3.70900       10.27100       24.80300
H          4.04400       10.77300       23.16300
H          5.01600        9.38600       23.79600
H          1.46800        4.58600       23.21900
C          1.30500        4.29300       24.27900
C          2.28600        3.10500       24.55000
H          1.44400        5.02900       25.04400
H          0.30200        3.90800       24.25000
H          3.34700        3.43700       24.55900
H          2.16400        2.28300       23.81200
C          2.23700        2.57400       25.94700
C          2.94600        1.27800       25.89200
H          2.78500        3.23100       26.61600
H          4.02000        1.33500       25.54800
H          2.45300        0.59900       25.16900
O          0.93100        2.40100       26.56200
H          0.68400        1.51900       26.42600
C          2.89300        0.43100       27.21100
H          1.83500        0.13800       27.47800
H          3.43700        0.93100       28.07300
H          3.35900       -0.60000       26.95300


