%chk=C10H24O2_pair_039_073.chk
%nproc=8
%mem=8000Mb
#p opt b3lyp/6-31G**

Conformer number 381. Energy MM = 0.000 kcal/mol

0 1
H         14.27000       24.12400        8.90300
C         14.36600       23.19800        8.37400
C         15.16600       22.11400        9.13900
H         13.35300       22.92100        8.17600
H         14.79100       23.55600        7.41900
H         16.17600       22.56000        9.38200
H         15.31200       21.27600        8.48000
C         14.56800       21.68900       10.40700
C         13.19900       21.21700       10.10800
H         15.10200       20.83500       10.75800
H         13.19900       20.63800        9.13700
H         12.52500       22.08900        9.97100
O         14.43300       22.63300       11.51200
H         15.30100       23.04800       11.62600
C         12.55500       20.46500       11.25300
H         11.66700       19.77600       11.03200
H         12.26000       21.05200       12.17800
H         13.21700       19.73000       11.67300
H         10.59100       24.29400       10.74800
C         10.16600       23.59900       11.58100
C         10.59400       24.10500       12.95500
H          9.04500       23.46900       11.45300
H         10.51100       22.56700       11.31700
H         10.05500       23.65400       13.80000
H         10.25700       25.19700       12.99000
C         12.01700       23.92500       13.19200
C         12.48400       24.44400       14.49700
H         12.32400       22.85400       13.18800
H         11.95700       23.88600       15.26300
H         12.23000       25.50400       14.61300
O         12.81200       24.53400       12.12500
H         13.18100       23.75300       11.71100
C         13.93400       24.35700       14.67000
H         14.41300       23.44100       14.27600
H         14.37900       24.40500       15.71900
H         14.39700       25.08000       14.04400


