%chk=C10H24O2_pair_064_089.chk
%nproc=8
%mem=8000Mb
#p opt b3lyp/6-31G**

Conformer number 526. Energy MM = 0.000 kcal/mol

0 1
H         12.56400       23.74700       18.39000
C         12.48100       22.75600       17.98700
C         12.93200       21.66400       18.95300
H         11.38500       22.54000       17.77400
H         13.03400       22.60700       17.12900
H         12.86600       20.57200       18.52600
H         12.26200       21.67000       19.84500
C         14.33500       21.82900       19.45600
C         14.81400       20.53300       20.02000
H         14.90900       22.32700       18.72700
H         15.21000       19.95400       19.23200
H         13.98600       20.01200       20.48000
O         14.30600       22.66400       20.61400
H         14.33000       23.63000       20.39100
C         15.99900       20.45600       21.07200
H         16.87700       20.74800       20.51400
H         16.07200       19.36100       21.47100
H         15.95700       21.08900       21.94900
H         12.13100       26.33900       19.57100
C         11.51100       25.68400       20.21000
C         11.33100       26.55600       21.52500
H         10.59400       25.33400       19.70500
H         12.04800       24.80600       20.41300
H         12.18200       26.31400       22.13200
H         10.47600       26.15800       22.14900
C         11.10000       27.97400       21.40100
C         11.21300       28.53700       22.72000
H         11.72000       28.46400       20.64500
H         12.18000       28.25300       23.12500
H         10.47300       28.08000       23.35500
O          9.76000       28.25200       20.97500
H          9.69000       28.05000       20.01300
C         10.81600       30.03200       22.90400
H          9.71900       30.22100       22.65400
H         11.44800       30.78000       22.44100
H         10.92500       30.25000       24.00400


