%chk=C10H24O2_pair_043_089.chk
%nproc=8
%mem=8000Mb
#p opt b3lyp/6-31G**

Conformer number 415. Energy MM = 0.000 kcal/mol

0 1
H         13.71900        6.77500       18.50100
C         14.14000        5.99300       19.12700
C         15.67000        6.02400       19.18100
H         13.81400        6.21500       20.16600
H         13.61000        5.15100       18.79000
H         16.15300        5.63100       18.26300
H         15.97500        5.29300       19.95100
C         16.23800        7.34600       19.47300
C         16.18200        8.27900       18.36500
H         15.75700        7.70700       20.38500
H         15.09600        8.50500       18.15200
H         16.77700        7.81000       17.56000
O         17.59400        7.20200       20.05100
H         18.05300        7.11400       19.17300
C         16.80600        9.63900       18.58500
H         17.87100        9.50300       18.91100
H         16.32300       10.12900       19.43900
H         16.81600       10.25600       17.71600
H         12.13100        1.87700       19.57100
C         11.51100        1.22200       20.21000
C         11.33100        2.09400       21.52500
H         10.59400        0.87200       19.70500
H         12.04800        0.34400       20.41300
H         12.18200        1.85200       22.13200
H         10.47600        1.69600       22.14900
C         11.10000        3.51200       21.40100
C         11.21300        4.07500       22.72000
H         11.72000        4.00200       20.64500
H         12.18000        3.79100       23.12500
H         10.47300        3.61800       23.35500
O          9.76000        3.79000       20.97500
H          9.69000        3.58800       20.01300
C         10.81600        5.57000       22.90400
H          9.71900        5.75900       22.65400
H         11.44800        6.31800       22.44100
H         10.92500        5.78800       24.00400


