%chk=C10H24O2_pair_041_069.chk
%nproc=8
%mem=8000Mb
#p opt b3lyp/6-31G**

Conformer number 399. Energy MM = 0.000 kcal/mol

0 1
H         16.23400       15.33000       10.90200
C         15.45300       14.60500       11.19500
C         15.71400       13.26100       10.44400
H         15.37400       14.63200       12.29600
H         14.56000       15.08500       10.85100
H         16.74300       12.92200       10.82000
H         15.88300       13.50800        9.37500
C         14.61700       12.29700       10.60400
C         14.92000       10.86600       10.40700
H         14.25800       12.37400       11.62900
H         13.99800       10.31600       10.45200
H         15.62400       10.55000       11.25700
O         13.48000       12.64700        9.78400
H         13.17700       13.49900       10.06500
C         15.64500       10.53700        9.12200
H         16.44600       11.25500        8.90400
H         14.96800       10.68700        8.32900
H         16.15600        9.56900        9.12300
H         14.07600        9.77300        7.00600
C         13.33500       10.37000        6.43500
C         11.94700        9.76900        6.89000
H         13.45600       11.42400        6.68900
H         13.49700       10.30300        5.32600
H         11.83100        8.73300        6.50500
H         11.20700       10.36200        6.43400
C         11.72700        9.79200        8.37400
C         10.51200        9.08800        8.70200
H         12.58300        9.28300        8.82400
H          9.65100        9.47000        8.14600
H         10.30200        9.21800        9.80000
O         11.64800       11.10900        8.85800
H         12.54100       11.43800        8.80100
C         10.67000        7.57900        8.59900
H         10.70100        7.12600        7.51700
H          9.83300        7.15100        9.13100
H         11.62300        7.30000        9.08200


