%chk=C10H24O2_pair_012_087.chk
%nproc=8
%mem=8000Mb
#p opt b3lyp/6-31G**

Conformer number 139. Energy MM = 0.000 kcal/mol

0 1
H         16.19600       15.39300        1.80300
C         16.69700       15.55200        2.75800
C         17.45200       14.35400        3.30500
H         17.45100       16.37400        2.60000
H         15.96800       15.91200        3.47300
H         16.75400       13.77600        3.85200
H         18.21700       14.63500        4.06500
C         18.09900       13.51200        2.24300
C         19.06500       12.54500        2.70900
H         17.31900       12.90400        1.76600
H         18.52100       11.77800        3.24100
H         19.73900       12.96200        3.42600
O         18.75800       14.38700        1.26200
H         18.14600       14.53800        0.52400
C         19.82400       11.83200        1.61600
H         20.69700       11.51300        2.20100
H         20.29300       12.53400        0.85600
H         19.39400       10.93600        1.19200
H         24.28300       10.52500        4.03500
C         24.20700       11.30200        3.19100
C         23.47500       10.56700        2.03800
H         23.61800       12.19500        3.55800
H         25.15500       11.69700        2.90900
H         22.54000       10.10600        2.39400
H         24.11300        9.65900        1.85200
C         23.21900       11.50400        0.92700
C         22.55300       10.97500       -0.26500
H         22.68900       12.37300        1.27900
H         21.59100       10.60000        0.05000
H         23.17700       10.13700       -0.61700
O         24.56000       11.88500        0.47400
H         25.01200       11.04100        0.32800
C         22.62900       11.95300       -1.46200
H         21.78200       11.87300       -2.11600
H         23.46500       11.73900       -2.10200
H         22.71900       13.02400       -1.15300


