%chk=C10H24O2_pair_000_038.chk
%nproc=8
%mem=8000Mb
#p opt b3lyp/6-31G**

Conformer number 001. Energy MM = 0.000 kcal/mol

0 1
H          9.65300       13.53000        9.14100
C          8.67700       13.24300        9.58800
C          8.71400       11.82800       10.24500
H          8.30800       13.94500       10.33400
H          7.92300       13.29500        8.76300
H          9.10800       11.21700        9.44200
H          7.70000       11.38700       10.49000
C          9.60000       11.64300       11.37100
C          9.01700       12.41900       12.48100
H          9.51000       10.51700       11.63400
H          7.97500       12.21500       12.75000
H          8.96700       13.49300       12.14600
O         10.90000       12.08900       11.19600
H         11.21300       11.64900       10.39700
C          9.85400       12.34100       13.78500
H          9.31100       12.90000       14.53800
H         10.90300       12.78000       13.65000
H          9.94200       11.24000       14.23600
H          5.92600        5.14200       14.41800
C          6.73900        5.37500       13.63200
C          7.94900        6.10000       14.27400
H          7.02800        4.49900       13.05400
H          6.21000        6.06500       12.94900
H          8.78100        6.08600       13.57900
H          8.17400        5.72300       15.32000
C          7.65200        7.48500       14.58600
C          8.55500        8.32700       15.40500
H          7.60000        8.00800       13.63600
H          9.60200        8.29900       15.07500
H          8.54100        7.95900       16.41900
O          6.39200        7.57900       15.23900
H          5.68800        7.08200       14.79900
C          8.07000        9.74700       15.30300
H          7.20900       10.00400       15.89800
H          7.83300        9.94000       14.22100
H          8.78000       10.51300       15.55600


