%chk=C10H24O2_pair_059_082.chk
%nproc=8
%mem=8000Mb
#p opt b3lyp/6-31G**

Conformer number 502. Energy MM = 0.000 kcal/mol

0 1
H          6.07100       19.73600       21.29400
C          5.48200       20.32900       20.54900
C          5.11400       21.74500       21.13900
H          6.13100       20.53600       19.67000
H          4.58800       19.74500       20.12800
H          4.72500       22.48200       20.37600
H          5.94300       22.19700       21.60500
C          4.23200       21.46900       22.26800
C          3.44700       22.67800       22.58100
H          3.37200       20.84200       21.82200
H          2.80900       23.02400       21.67400
H          4.15100       23.50700       22.72300
O          4.91300       20.90000       23.37000
H          4.20100       20.43800       23.90700
C          2.39200       22.42000       23.66800
H          1.73000       21.59100       23.32300
H          2.00900       23.39400       23.96100
H          2.95100       22.15600       24.65700
H          1.46800       29.04800       23.21900
C          1.30500       28.75500       24.27900
C          2.28600       27.56700       24.55000
H          1.44400       29.49100       25.04400
H          0.30200       28.37000       24.25000
H          3.34700       27.89900       24.55900
H          2.16400       26.74500       23.81200
C          2.23700       27.03600       25.94700
C          2.94600       25.74000       25.89200
H          2.78500       27.69300       26.61600
H          4.02000       25.79700       25.54800
H          2.45300       25.06100       25.16900
O          0.93100       26.86300       26.56200
H          0.68400       25.98100       26.42600
C          2.89300       24.89300       27.21100
H          1.83500       24.60000       27.47800
H          3.43700       25.39300       28.07300
H          3.35900       23.86200       26.95300


