%chk=C10H24O2_pair_034_076.chk
%nproc=8
%mem=8000Mb
#p opt b3lyp/6-31G**

Conformer number 342. Energy MM = 0.000 kcal/mol

0 1
H          3.80700        5.15600       10.25400
C          2.99500        4.96100        9.55200
C          3.53200        4.47500        8.20900
H          2.27300        4.19800       10.05900
H          2.45000        5.94100        9.36500
H          2.83000        4.43000        7.38600
H          3.91800        3.50000        8.39500
C          4.63200        5.28100        7.62200
C          5.31700        4.65500        6.48700
H          4.20400        6.23700        7.25100
H          4.54500        4.14400        5.86200
H          6.00600        3.86900        6.78800
O          5.61500        5.55700        8.59500
H          5.39800        6.48500        8.81400
C          6.02300        5.62100        5.52200
H          5.33500        6.38200        5.14100
H          6.51800        5.17300        4.65000
H          6.80700        6.07000        6.11900
H          7.51500       11.99200        4.51700
C          6.40400       12.17000        4.43500
C          5.75700       12.17400        5.79500
H          6.17200       13.08700        3.92900
H          6.01000       11.35400        3.83800
H          4.90300       11.52500        5.84600
H          5.45200       13.15400        5.97900
C          6.62200       11.71500        6.94100
C          7.16100       10.33400        6.99400
H          7.61400       12.33500        7.05500
H          7.43300       10.18200        8.06100
H          8.08600       10.18500        6.35400
O          5.78300       11.82600        8.08100
H          5.55000       12.70700        8.05500
C          6.25100        9.15100        6.72100
H          6.91100        8.24600        6.84300
H          5.71400        9.24300        5.75300
H          5.53800        9.04800        7.59200


