%chk=C10H24O2_pair_032_089.chk
%nproc=8
%mem=8000Mb
#p opt b3lyp/6-31G**

Conformer number 327. Energy MM = 0.000 kcal/mol

0 1
H          7.96400        8.05900       22.05000
C          8.40700        8.92400       22.63100
C          7.77500       10.31400       22.38900
H          8.23100        8.78600       23.71200
H          9.51400        8.98400       22.52200
H          6.73600       10.16100       22.13600
H          8.29300       10.75600       21.48900
C          7.91000       11.24400       23.45500
C          7.20200       12.49100       23.19500
H          7.38500       10.78600       24.28500
H          6.16800       12.23700       22.99700
H          7.60800       12.95200       22.27500
O          9.26100       11.53200       23.64000
H          9.65700       10.80300       24.13800
C          7.39000       13.52800       24.32000
H          8.42600       13.85900       24.41100
H          6.97700       13.13100       25.21300
H          6.77500       14.46300       24.09300
H         12.13100        1.87700       19.57100
C         11.51100        1.22200       20.21000
C         11.33100        2.09400       21.52500
H         10.59400        0.87200       19.70500
H         12.04800        0.34400       20.41300
H         12.18200        1.85200       22.13200
H         10.47600        1.69600       22.14900
C         11.10000        3.51200       21.40100
C         11.21300        4.07500       22.72000
H         11.72000        4.00200       20.64500
H         12.18000        3.79100       23.12500
H         10.47300        3.61800       23.35500
O          9.76000        3.79000       20.97500
H          9.69000        3.58800       20.01300
C         10.81600        5.57000       22.90400
H          9.71900        5.75900       22.65400
H         11.44800        6.31800       22.44100
H         10.92500        5.78800       24.00400


