%chk=C10H24O2_pair_035_098.chk
%nproc=8
%mem=8000Mb
#p opt b3lyp/6-31G**

Conformer number 352. Energy MM = 0.000 kcal/mol

0 1
H          2.39900        1.38200       21.67800
C          1.69200        1.13400       20.84400
C          2.38000        1.00300       19.56200
H          1.09800        0.26700       21.13000
H          1.04300        1.95100       20.89400
H          3.11900        0.17000       19.76600
H          2.94500        1.95200       19.26800
C          1.62300        0.63700       18.35200
C          2.43800        0.50500       17.19300
H          1.21600       -0.35200       18.55200
H          3.16700       -0.26500       17.49900
H          2.99400        1.51000       17.08500
O          0.49600        1.49000       18.24000
H         -0.09500        0.94500       17.79000
C          1.81900        0.16800       15.89000
H          2.62900        0.15900       15.17800
H          1.08000        0.97200       15.70200
H          1.24600       -0.82000       15.81600
H          8.46500        1.73200       22.94600
C          8.04700        2.17500       23.85000
C          6.70900        2.82700       23.59200
H          7.97600        1.34700       24.51500
H          8.70200        2.97700       24.25800
H          6.37800        3.01700       24.63100
H          5.92100        2.13900       23.10700
C          6.72000        4.04600       22.82600
C          5.50700        4.82700       22.72400
H          7.51000        4.70900       23.20200
H          5.68700        5.79400       22.21000
H          5.13700        5.13900       23.74400
O          7.07700        3.81500       21.48400
H          8.00400        3.62600       21.46400
C          4.31200        4.24400       21.88000
H          4.05000        3.26200       22.24300
H          4.63700        4.17100       20.83500
H          3.34000        4.77900       21.99400


