%chk=C10H24O2_pair_036_089.chk
%nproc=8
%mem=8000Mb
#p opt b3lyp/6-31G**

Conformer number 360. Energy MM = 0.000 kcal/mol

0 1
H         15.86800        5.45700       23.97600
C         15.07300        5.46000       23.20900
C         14.92300        4.13900       22.44600
H         14.09800        5.72200       23.64200
H         15.35700        6.31500       22.60900
H         15.70300        4.03600       21.65500
H         14.00500        4.24700       21.84700
C         14.81000        2.90600       23.25200
C         15.87400        2.65400       24.29300
H         13.84300        3.03300       23.78200
H         15.58400        3.37800       25.05700
H         16.86300        2.96200       23.89900
O         14.63600        1.84300       22.33800
H         14.35400        1.08500       22.86200
C         15.93600        1.29000       24.81600
H         14.92700        0.96600       25.15800
H         16.70600        1.04400       25.53500
H         16.14000        0.63500       23.92100
H         12.13100        1.87700       19.57100
C         11.51100        1.22200       20.21000
C         11.33100        2.09400       21.52500
H         10.59400        0.87200       19.70500
H         12.04800        0.34400       20.41300
H         12.18200        1.85200       22.13200
H         10.47600        1.69600       22.14900
C         11.10000        3.51200       21.40100
C         11.21300        4.07500       22.72000
H         11.72000        4.00200       20.64500
H         12.18000        3.79100       23.12500
H         10.47300        3.61800       23.35500
O          9.76000        3.79000       20.97500
H          9.69000        3.58800       20.01300
C         10.81600        5.57000       22.90400
H          9.71900        5.75900       22.65400
H         11.44800        6.31800       22.44100
H         10.92500        5.78800       24.00400


