%chk=C10H24O2_pair_006_063.chk
%nproc=8
%mem=8000Mb
#p opt b3lyp/6-31G**

Conformer number 074. Energy MM = 0.000 kcal/mol

0 1
H          5.20400        1.78700        6.55400
C          5.06300        0.71100        6.51400
C          5.91000       -0.04600        7.51800
H          4.06900        0.44000        6.79800
H          5.31800        0.47200        5.40700
H          5.66000       -1.15000        7.58300
H          5.78200        0.33200        8.50600
C          7.33200        0.03600        7.17500
C          8.28700       -0.69100        8.03900
H          7.44100       -0.38200        6.15400
H          7.97300       -1.77800        8.21800
H          8.28700       -0.29000        9.04700
O          7.79100        1.43400        7.03500
H          7.34600        1.86200        7.78000
C          9.78100       -0.73400        7.68000
H         10.35800        0.14300        7.88800
H          9.96400       -1.02800        6.63300
H         10.27800       -1.48700        8.27700
H          8.52200       -3.74600        3.22600
C          7.82400       -3.26600        3.87300
C          8.25900       -3.27000        5.34100
H          7.70500       -2.23400        3.51900
H          6.90300       -3.84700        3.73100
H          7.39400       -2.82400        5.86100
H          9.03200       -2.51800        5.48100
C          8.67500       -4.53100        5.86800
C          9.23200       -4.39200        7.21000
H          7.83400       -5.11900        6.06100
H          8.40200       -4.04400        7.83700
H         10.05100       -3.58800        7.24300
O          9.55300       -5.20600        5.02400
H         10.46400       -5.08300        5.33100
C          9.84900       -5.57000        7.94100
H         10.22200       -5.28300        8.91800
H         10.68700       -6.11900        7.34900
H          9.08700       -6.36700        8.12600


