%chk=C10H24O2_pair_037_074.chk
%nproc=8
%mem=8000Mb
#p opt b3lyp/6-31G**

Conformer number 367. Energy MM = 0.000 kcal/mol

0 1
H          3.78300       12.20400       10.95800
C          2.73000       12.39700       10.62200
C          2.04100       11.20800       10.07500
H          2.26200       12.70500       11.56600
H          2.76800       13.32500        9.91800
H          0.94500       11.32100        9.91300
H          2.17500       10.40200       10.85800
C          2.68400       10.78900        8.85900
C          1.93400        9.79700        8.09100
H          2.78400       11.61200        8.15800
H          1.78000        8.89200        8.68900
H          0.94200       10.24900        7.66700
O          4.05700       10.40000        9.18600
H          4.63500       10.95400        8.62400
C          2.74100        9.28000        6.89300
H          3.00100       10.13000        6.20700
H          2.00500        8.64400        6.34500
H          3.62700        8.63400        7.11200
H          5.80000       14.70800       13.78100
C          4.77100       14.52600       13.45200
C          4.02800       13.95100       14.59500
H          4.40600       15.50100       13.09600
H          4.90600       13.76000       12.60400
H          3.11200       13.48300       14.23300
H          3.63300       14.69700       15.29600
C          4.72100       12.98900       15.45600
C          5.46300       11.84900       14.89700
H          5.41100       13.64300       16.03900
H          5.85400       11.29600       15.76700
H          6.43500       12.13900       14.31000
O          3.79800       12.54400       16.44800
H          4.37000       12.14700       17.12000
C          4.60700       10.87800       14.22000
H          3.53800       10.99100       14.50500
H          4.90000        9.82000       14.39900
H          4.66300       11.15600       13.17200


