%chk=C10H24O2_pair_002_099.chk
%nproc=8
%mem=8000Mb
#p opt b3lyp/6-31G**

Conformer number 035. Energy MM = 0.000 kcal/mol

0 1
H         22.43700       20.29800       10.86400
C         22.75800       20.08000        9.82200
C         21.79600       20.58700        8.74700
H         23.79600       20.42400        9.67500
H         22.74100       18.94300        9.83700
H         21.93800       21.61100        8.44500
H         20.80700       20.47200        9.17600
C         21.77300       19.71800        7.56400
C         22.97900       19.84100        6.81400
H         21.74000       18.69200        7.88300
H         23.92500       19.82300        7.46100
H         22.86700       20.68300        6.10100
O         20.60400       19.77900        6.67500
H         20.68100       20.54200        6.10600
C         23.26900       18.67300        5.80400
H         22.46100       18.66200        5.04000
H         23.19800       17.72100        6.32600
H         24.30200       18.87100        5.38000
H         18.31900       21.04400       10.92000
C         18.76100       21.96300       11.23800
C         18.11800       22.18500       12.62200
H         19.82400       22.00600       11.18200
H         18.32900       22.82200       10.56600
H         18.71300       21.68600       13.38800
H         17.18200       21.61600       12.68400
C         17.81500       23.58700       12.94100
C         17.54200       23.76500       14.37000
H         18.77100       24.09100       12.67700
H         18.27500       23.24600       14.94300
H         16.53000       23.32200       14.47100
O         16.72900       24.01700       12.12600
H         16.76000       24.96700       12.07600
C         17.52100       25.17400       14.82600
H         16.88300       25.82500       14.23100
H         18.50100       25.63400       14.84700
H         17.14900       25.20800       15.89800


