%chk=C10H24O2_pair_001_050.chk
%nproc=8
%mem=8000Mb
#p opt b3lyp/6-31G**

Conformer number 016. Energy MM = 0.000 kcal/mol

0 1
H         15.44800       12.97300       17.13200
C         15.79600       12.90600       18.11800
C         15.40400       14.17100       18.92200
H         15.14500       12.12200       18.50300
H         16.78800       12.61400       18.20000
H         15.60000       13.89900       19.98900
H         14.31100       14.39400       18.79000
C         16.11100       15.32100       18.49100
C         15.84500       16.63600       19.19500
H         17.19700       15.07300       18.62700
H         15.78500       16.48600       20.25100
H         14.85000       17.02100       18.92300
O         15.97100       15.61000       17.10900
H         16.32800       16.49800       16.89100
C         17.04400       17.72700       19.04200
H         17.03600       18.57200       19.65100
H         17.07300       18.10200       18.03400
H         17.95000       17.14600       19.34800
H         14.20200       13.56400       13.91700
C         14.13800       13.81000       14.98300
C         12.81000       14.60300       15.18900
H         14.18200       12.87100       15.50300
H         15.03400       14.39900       15.26200
H         12.01200       13.83400       15.05700
H         12.68900       15.36200       14.39600
C         12.63000       15.05400       16.49700
C         11.26700       15.34200       16.89200
H         12.92800       14.25300       17.17800
H         10.55800       14.56200       16.44200
H         11.03300       16.32800       16.46400
O         13.47400       16.16900       16.71100
H         14.35600       15.77200       16.60200
C         11.22800       15.44000       18.39000
H         10.31000       15.92900       18.77100
H         11.94300       16.19900       18.75900
H         11.39400       14.46600       18.85900


