%chk=C10H24O2_pair_038_071.chk
%nproc=8
%mem=8000Mb
#p opt b3lyp/6-31G**

Conformer number 374. Energy MM = 0.000 kcal/mol

0 1
H          5.92600        5.14200       14.41800
C          6.73900        5.37500       13.63200
C          7.94900        6.10000       14.27400
H          7.02800        4.49900       13.05400
H          6.21000        6.06500       12.94900
H          8.78100        6.08600       13.57900
H          8.17400        5.72300       15.32000
C          7.65200        7.48500       14.58600
C          8.55500        8.32700       15.40500
H          7.60000        8.00800       13.63600
H          9.60200        8.29900       15.07500
H          8.54100        7.95900       16.41900
O          6.39200        7.57900       15.23900
H          5.68800        7.08200       14.79900
C          8.07000        9.74700       15.30300
H          7.20900       10.00400       15.89800
H          7.83300        9.94000       14.22100
H          8.78000       10.51300       15.55600
H          2.20300        7.36400       12.83200
C          2.89400        7.21000       11.92200
C          4.22900        8.08400       11.92200
H          3.08500        6.08800       11.99900
H          2.27200        7.45600       10.94900
H          4.76600        7.93900       12.86200
H          3.94800        9.12500       12.05600
C          5.23600        7.82300       10.88600
C          6.34500        8.73000       11.03400
H          5.60800        6.76500       11.11100
H          6.45800        8.86900       12.08800
H          6.13400        9.70100       10.72600
O          4.71400        7.73300        9.57000
H          4.28900        8.60300        9.41100
C          7.58800        8.21700       10.28000
H          7.38900        8.28600        9.20400
H          7.98600        7.20300       10.55500
H          8.34800        9.02100       10.51400


