%chk=C10H24O2_pair_078_090.chk
%nproc=8
%mem=8000Mb
#p opt b3lyp/6-31G**

Conformer number 577. Energy MM = 0.000 kcal/mol

0 1
H         17.02100        4.41500        1.84800
C         17.49500        5.40600        1.85900
C         16.41200        6.53400        1.91100
H         18.21200        5.56500        2.68000
H         18.07600        5.40900        0.89700
H         15.62400        6.32500        1.10900
H         16.87000        7.52600        1.78100
C         15.58300        6.64100        3.15200
C         14.42800        7.50300        2.97600
H         15.19600        5.64200        3.34200
H         13.71000        6.99200        2.23200
H         14.72200        8.41900        2.52500
O         16.43400        6.90300        4.25600
H         16.00500        6.70300        5.07300
C         13.72700        7.88400        4.28100
H         12.98100        8.69500        4.14000
H         14.41500        8.19800        5.06700
H         13.20100        6.98000        4.59800
H          7.76300        6.73900        0.20300
C          6.97100        7.06500        0.90800
C          7.34000        7.97100        2.12400
H          6.25000        7.63600        0.35200
H          6.37900        6.10800        1.23400
H          6.43700        7.99000        2.81900
H          7.37500        9.06300        1.92200
C          8.42200        7.51100        2.88700
C          8.64500        8.17500        4.14200
H          8.04100        6.52800        3.17200
H          7.62400        8.21200        4.71600
H          8.96900        9.20000        3.90400
O          9.61700        7.31600        2.16500
H          9.91400        6.51900        2.62300
C          9.63200        7.45500        5.12100
H         10.67400        7.63600        4.81900
H          9.35800        6.44500        5.16200
H          9.41100        7.80800        6.11000


