%chk=C10H24O2_pair_029_098.chk
%nproc=8
%mem=8000Mb
#p opt b3lyp/6-31G**

Conformer number 305. Energy MM = 0.000 kcal/mol

0 1
H         12.65800       25.72400       24.33000
C         11.82400       25.12900       24.76000
C         12.25300       23.68300       24.84300
H         11.59000       25.47900       25.73500
H         10.95200       25.36700       24.16100
H         11.54300       23.07100       25.37400
H         13.19800       23.66300       25.43300
C         12.58500       23.11800       23.49900
C         12.91700       21.70100       23.56000
H         11.75700       23.47500       22.77500
H         13.05500       21.31200       22.51500
H         12.05500       21.10400       23.85700
O         13.71400       23.69700       22.91300
H         13.89500       23.12000       22.15800
C         14.17400       21.25000       24.38900
H         13.98600       21.07100       25.41000
H         14.96200       22.06000       24.44800
H         14.64100       20.42000       23.81900
H          8.46500       26.19400       22.94600
C          8.04700       26.63700       23.85000
C          6.70900       27.28900       23.59200
H          7.97600       25.80900       24.51500
H          8.70200       27.43900       24.25800
H          6.37800       27.47900       24.63100
H          5.92100       26.60100       23.10700
C          6.72000       28.50800       22.82600
C          5.50700       29.28900       22.72400
H          7.51000       29.17100       23.20200
H          5.68700       30.25600       22.21000
H          5.13700       29.60100       23.74400
O          7.07700       28.27700       21.48400
H          8.00400       28.08800       21.46400
C          4.31200       28.70600       21.88000
H          4.05000       27.72400       22.24300
H          4.63700       28.63300       20.83500
H          3.34000       29.24100       21.99400


