%chk=C10H24O2_pair_060_077.chk
%nproc=8
%mem=8000Mb
#p opt b3lyp/6-31G**

Conformer number 507. Energy MM = 0.000 kcal/mol

0 1
H         19.28800        5.79900        9.92400
C         19.87400        6.62400        9.54300
C         21.19400        6.23900        8.88700
H         19.25300        7.06100        8.75600
H         19.97800        7.41400       10.33700
H         21.46400        7.15200        8.29400
H         20.91400        5.46300        8.12600
C         22.36400        5.81500        9.64100
C         23.51500        5.39500        8.81600
H         22.67700        6.68400       10.28000
H         23.22200        4.71800        8.00300
H         24.23300        4.84100        9.45700
O         21.96500        4.73800       10.45500
H         22.65900        4.79400       11.15800
C         24.34800        6.54600        8.25100
H         23.78600        7.22000        7.63900
H         25.12700        6.21400        7.62800
H         24.87100        7.18400        8.96000
H         18.01100        7.27400       11.92300
C         17.08800        6.79100       11.74700
C         16.49300        6.15200       13.02200
H         16.47600        7.59500       11.25900
H         17.38600        6.05200       10.91800
H         16.34700        6.99000       13.67600
H         17.27200        5.55600       13.59500
C         15.21100        5.42300       12.90000
C         14.75700        4.96800       14.23300
H         14.38900        5.95500       12.30400
H         15.52100        4.38500       14.75500
H         13.97200        4.24400       14.02200
O         15.49800        4.23600       12.11300
H         14.62000        3.74100       12.07700
C         14.16600        6.02600       15.17400
H         14.90200        6.86400       15.45400
H         13.75100        5.60800       16.11500
H         13.36900        6.48000       14.63500


