%chk=C10H24O2_pair_079_094.chk
%nproc=8
%mem=8000Mb
#p opt b3lyp/6-31G**

Conformer number 578. Energy MM = 0.000 kcal/mol

0 1
H         23.41900       10.39600       10.91800
C         23.33400        9.46300       11.48000
C         21.79400        9.29600       11.59800
H         23.59600        8.58700       10.79000
H         24.02100        9.48200       12.27700
H         21.54900        8.31300       12.04000
H         21.41500        9.18800       10.57500
C         21.07600       10.25700       12.38300
C         19.66900        9.92200       12.41900
H         21.39500       10.31900       13.45200
H         19.24400       10.48000       13.26100
H         19.50300        8.85500       12.76900
O         21.36000       11.54800       11.84100
H         20.81100       12.12300       12.40700
C         18.88000       10.17700       11.12900
H         17.82700        9.95000       11.40300
H         19.10200        9.49000       10.36800
H         18.83400       11.20300       10.73300
H         23.03800       13.46800       12.92900
C         23.72900       13.34800       13.82200
C         23.69800       11.92400       14.38900
H         24.77900       13.71100       13.57000
H         23.25400       14.13500       14.55700
H         24.04100       11.25300       13.59600
H         22.60900       11.70000       14.63200
C         24.57300       11.69600       15.55300
C         24.68100       10.29400       15.92400
H         25.63300       12.09600       15.28800
H         25.03900        9.61000       15.10700
H         23.58200        9.95400       15.87900
O         24.08000       12.50600       16.65700
H         24.77900       12.86300       17.23600
C         25.43400        9.97500       17.28200
H         25.49900        8.94500       17.61000
H         25.07000       10.50200       18.15500
H         26.50200       10.34900       17.15000


