%chk=C10H24O2_pair_044_081.chk
%nproc=8
%mem=8000Mb
#p opt b3lyp/6-31G**

Conformer number 421. Energy MM = 0.000 kcal/mol

0 1
H         23.76700        7.80800        5.46700
C         24.15700        7.45000        4.45700
C         23.00100        7.07800        3.48900
H         24.81600        8.31800        4.10700
H         24.83800        6.67600        4.70600
H         22.43400        7.96700        3.40100
H         22.31800        6.37500        3.92700
C         23.36100        6.65600        2.14500
C         22.29900        6.27400        1.19500
H         23.88400        7.42000        1.65200
H         21.80900        5.33300        1.51000
H         22.91300        5.95500        0.35300
O         24.26000        5.62800        2.18100
H         23.91400        4.97800        2.75200
C         21.25000        7.29900        0.82200
H         21.80400        8.15200        0.35500
H         20.56800        7.55900        1.69600
H         20.43300        6.85900        0.15300
H         25.16500        8.42900       -4.03700
C         25.36900        7.67000       -3.20500
C         25.10600        8.11100       -1.77300
H         24.65400        6.86200       -3.52400
H         26.40300        7.33700       -3.25200
H         25.19100        7.26200       -1.03200
H         23.99500        8.44900       -1.70700
C         26.04400        9.15100       -1.24200
C         27.50400        8.87900       -1.37600
H         25.93600       10.20200       -1.66600
H         27.72200        8.85600       -2.42600
H         27.71700        7.85000       -1.00000
O         25.78800        9.53400        0.13900
H         26.02700        8.77400        0.64100
C         28.44000        9.89100       -0.68200
H         28.17100       10.27100        0.34100
H         28.50600       10.77300       -1.29900
H         29.47800        9.38600       -0.66600


