%chk=C10H24O2_pair_041_049.chk
%nproc=8
%mem=8000Mb
#p opt b3lyp/6-31G**

Conformer number 396. Energy MM = 0.000 kcal/mol

0 1
H         16.23400       15.33000       10.90200
C         15.45300       14.60500       11.19500
C         15.71400       13.26100       10.44400
H         15.37400       14.63200       12.29600
H         14.56000       15.08500       10.85100
H         16.74300       12.92200       10.82000
H         15.88300       13.50800        9.37500
C         14.61700       12.29700       10.60400
C         14.92000       10.86600       10.40700
H         14.25800       12.37400       11.62900
H         13.99800       10.31600       10.45200
H         15.62400       10.55000       11.25700
O         13.48000       12.64700        9.78400
H         13.17700       13.49900       10.06500
C         15.64500       10.53700        9.12200
H         16.44600       11.25500        8.90400
H         14.96800       10.68700        8.32900
H         16.15600        9.56900        9.12300
H         10.70100        7.49500       13.79900
C         11.02400        7.88900       12.81800
C         12.41500        8.62600       12.93300
H         11.05900        7.15500       12.02400
H         10.28100        8.69300       12.52500
H         12.56400        9.13200       11.96200
H         13.27600        7.95800       12.97900
C         12.42600        9.66400       13.98800
C         13.74400       10.33400       14.15600
H         11.69200       10.45800       13.81100
H         13.53400       11.10700       14.91700
H         14.02200       10.79900       13.20600
O         12.04100        9.01100       15.16700
H         12.77100        8.40700       15.29300
C         14.91700        9.50900       14.64600
H         15.15300        8.83400       13.81200
H         14.75500        8.91800       15.55500
H         15.73500       10.18100       14.87700


