%chk=C10H24O2_pair_037_079.chk
%nproc=8
%mem=8000Mb
#p opt b3lyp/6-31G**

Conformer number 369. Energy MM = 0.000 kcal/mol

0 1
H          3.78300       12.20400       10.95800
C          2.73000       12.39700       10.62200
C          2.04100       11.20800       10.07500
H          2.26200       12.70500       11.56600
H          2.76800       13.32500        9.91800
H          0.94500       11.32100        9.91300
H          2.17500       10.40200       10.85800
C          2.68400       10.78900        8.85900
C          1.93400        9.79700        8.09100
H          2.78400       11.61200        8.15800
H          1.78000        8.89200        8.68900
H          0.94200       10.24900        7.66700
O          4.05700       10.40000        9.18600
H          4.63500       10.95400        8.62400
C          2.74100        9.28000        6.89300
H          3.00100       10.13000        6.20700
H          2.00500        8.64400        6.34500
H          3.62700        8.63400        7.11200
H         -1.04300       10.39600       10.91800
C         -1.12800        9.46300       11.48000
C         -2.66800        9.29600       11.59800
H         -0.86600        8.58700       10.79000
H         -0.44100        9.48200       12.27700
H         -2.91300        8.31300       12.04000
H         -3.04700        9.18800       10.57500
C         -3.38600       10.25700       12.38300
C         -4.79300        9.92200       12.41900
H         -3.06700       10.31900       13.45200
H         -5.21800       10.48000       13.26100
H         -4.95900        8.85500       12.76900
O         -3.10200       11.54800       11.84100
H         -3.65100       12.12300       12.40700
C         -5.58200       10.17700       11.12900
H         -6.63500        9.95000       11.40300
H         -5.36000        9.49000       10.36800
H         -5.62800       11.20300       10.73300


