%chk=C10H24O2_pair_025_037.chk
%nproc=8
%mem=8000Mb
#p opt b3lyp/6-31G**

Conformer number 257. Energy MM = 0.000 kcal/mol

0 1
H         25.72800       15.69600       13.03600
C         25.00500       15.99900       12.31700
C         25.24100       15.23700       11.00800
H         24.09100       15.60900       12.67300
H         25.11800       17.06300       12.17700
H         25.10000       14.24400       11.40600
H         26.33000       15.23100       10.75000
C         24.32000       15.53000        9.95400
C         22.98600       15.98700       10.30300
H         24.65200       16.36600        9.23800
H         22.95400       16.93900       10.88700
H         22.50600       15.29100       11.06400
O         24.28700       14.46700        9.04800
H         23.50800       13.96500        9.21300
C         22.07600       16.12000        9.13000
H         21.06100       16.41900        9.54100
H         21.86100       15.18600        8.67700
H         22.49900       16.88600        8.35500
H         28.24500       12.20400       10.95800
C         27.19200       12.39700       10.62200
C         26.50300       11.20800       10.07500
H         26.72400       12.70500       11.56600
H         27.23000       13.32500        9.91800
H         25.40700       11.32100        9.91300
H         26.63700       10.40200       10.85800
C         27.14600       10.78900        8.85900
C         26.39600        9.79700        8.09100
H         27.24600       11.61200        8.15800
H         26.24200        8.89200        8.68900
H         25.40400       10.24900        7.66700
O         28.51900       10.40000        9.18600
H         29.09700       10.95400        8.62400
C         27.20300        9.28000        6.89300
H         27.46300       10.13000        6.20700
H         26.46700        8.64400        6.34500
H         28.08900        8.63400        7.11200


