%chk=C10H24O2_pair_026_095.chk
%nproc=8
%mem=8000Mb
#p opt b3lyp/6-31G**

Conformer number 276. Energy MM = 0.000 kcal/mol

0 1
H          6.34900       22.80300       26.44900
C          6.75100       22.74700       25.43600
C          8.11000       22.05000       25.35800
H          6.14200       22.24300       24.76600
H          6.93800       23.80100       25.03600
H          8.03100       21.07800       25.85500
H          8.79100       22.63300       25.98300
C          8.63600       21.78400       24.03100
C          8.80000       22.97800       23.28200
H          9.65100       21.23700       24.07200
H          9.60600       23.54400       23.78100
H          7.93500       23.59100       23.27800
O          7.75600       20.94200       23.19100
H          6.84900       20.87700       23.51400
C          9.31900       22.75100       21.84400
H         10.21200       22.13900       21.79300
H          9.53900       23.73000       21.35800
H          8.50800       22.27500       21.24200
H         12.19600       16.87700       21.16300
C         12.44500       17.92000       21.52300
C         11.39400       18.94000       21.04000
H         12.69100       17.88700       22.67400
H         13.40700       18.00000       21.00400
H         11.26200       18.89900       19.94200
H         11.84700       19.95300       21.04800
C         10.09600       18.82200       21.65300
C          9.53400       17.47500       21.76000
H         10.14900       19.27100       22.76500
H         10.13500       16.71800       22.36400
H          9.38800       17.07600       20.71500
O          9.22000       19.65200       20.90600
H          8.74100       20.12800       21.59200
C          8.13500       17.46000       22.37200
H          7.83000       16.43300       22.37000
H          7.48700       18.05800       21.76300
H          8.19400       17.83700       23.38900


