%chk=C10H24O2_pair_068_087.chk
%nproc=8
%mem=8000Mb
#p opt b3lyp/6-31G**

Conformer number 544. Energy MM = 0.000 kcal/mol

0 1
H          3.07600       16.26600       20.28000
C          2.53400       16.61900       19.47400
C          2.39800       15.57700       18.37600
H          3.10900       17.46500       19.12800
H          1.58000       17.10200       19.86400
H          3.40900       15.35100       18.18700
H          1.80700       15.88900       17.52800
C          1.75500       14.36900       18.88500
C          0.34300       14.43700       19.37400
H          2.39300       13.92800       19.67100
H         -0.22600       14.73300       18.50800
H          0.11000       15.23100       20.10700
O          1.77800       13.31300       17.84800
H          2.70000       13.28500       17.50300
C         -0.17000       13.01700       19.91900
H          0.25700       12.66400       20.85900
H          0.04200       12.23100       19.20800
H         -1.25400       12.90500       20.10000
H         -0.17900       10.52500       28.49700
C         -0.25500       11.30200       27.65300
C         -0.98700       10.56700       26.50000
H         -0.84400       12.19500       28.02000
H          0.69300       11.69700       27.37100
H         -1.92200       10.10600       26.85600
H         -0.34900        9.65900       26.31400
C         -1.24300       11.50400       25.38900
C         -1.90900       10.97500       24.19700
H         -1.77300       12.37300       25.74100
H         -2.87100       10.60000       24.51200
H         -1.28500       10.13700       23.84500
O          0.09800       11.88500       24.93600
H          0.55000       11.04100       24.79000
C         -1.83300       11.95300       23.00000
H         -2.68000       11.87300       22.34600
H         -0.99700       11.73900       22.36000
H         -1.74300       13.02400       23.30900


