%chk=C10H24O2_pair_060_079.chk
%nproc=8
%mem=8000Mb
#p opt b3lyp/6-31G**

Conformer number 508. Energy MM = 0.000 kcal/mol

0 1
H         19.28800        5.79900        9.92400
C         19.87400        6.62400        9.54300
C         21.19400        6.23900        8.88700
H         19.25300        7.06100        8.75600
H         19.97800        7.41400       10.33700
H         21.46400        7.15200        8.29400
H         20.91400        5.46300        8.12600
C         22.36400        5.81500        9.64100
C         23.51500        5.39500        8.81600
H         22.67700        6.68400       10.28000
H         23.22200        4.71800        8.00300
H         24.23300        4.84100        9.45700
O         21.96500        4.73800       10.45500
H         22.65900        4.79400       11.15800
C         24.34800        6.54600        8.25100
H         23.78600        7.22000        7.63900
H         25.12700        6.21400        7.62800
H         24.87100        7.18400        8.96000
H         23.41900       10.39600       10.91800
C         23.33400        9.46300       11.48000
C         21.79400        9.29600       11.59800
H         23.59600        8.58700       10.79000
H         24.02100        9.48200       12.27700
H         21.54900        8.31300       12.04000
H         21.41500        9.18800       10.57500
C         21.07600       10.25700       12.38300
C         19.66900        9.92200       12.41900
H         21.39500       10.31900       13.45200
H         19.24400       10.48000       13.26100
H         19.50300        8.85500       12.76900
O         21.36000       11.54800       11.84100
H         20.81100       12.12300       12.40700
C         18.88000       10.17700       11.12900
H         17.82700        9.95000       11.40300
H         19.10200        9.49000       10.36800
H         18.83400       11.20300       10.73300


