%chk=C10H24O2_pair_049_065.chk
%nproc=8
%mem=8000Mb
#p opt b3lyp/6-31G**

Conformer number 447. Energy MM = 0.000 kcal/mol

0 1
H         10.70100        7.49500       13.79900
C         11.02400        7.88900       12.81800
C         12.41500        8.62600       12.93300
H         11.05900        7.15500       12.02400
H         10.28100        8.69300       12.52500
H         12.56400        9.13200       11.96200
H         13.27600        7.95800       12.97900
C         12.42600        9.66400       13.98800
C         13.74400       10.33400       14.15600
H         11.69200       10.45800       13.81100
H         13.53400       11.10700       14.91700
H         14.02200       10.79900       13.20600
O         12.04100        9.01100       15.16700
H         12.77100        8.40700       15.29300
C         14.91700        9.50900       14.64600
H         15.15300        8.83400       13.81200
H         14.75500        8.91800       15.55500
H         15.73500       10.18100       14.87700
H         18.59700       16.65800       14.05900
C         19.42800       16.50200       13.32600
C         19.17000       15.33400       12.40200
H         19.38500       17.47200       12.76100
H         20.41800       16.45300       13.89900
H         20.00200       15.35500       11.64300
H         18.17000       15.66100       11.95100
C         18.99000       13.94400       12.91200
C         17.91100       13.78200       13.83700
H         18.64100       13.41900       12.07600
H         17.02800       14.39900       13.59600
H         18.23400       14.20100       14.83500
O         20.16200       13.35900       13.38200
H         20.32200       13.73900       14.25200
C         17.25600       12.36700       14.08600
H         16.56100       12.53500       14.96000
H         17.86900       11.49800       14.41800
H         16.67600       12.08600       13.20600


