%chk=C10H24O2_pair_027_082.chk
%nproc=8
%mem=8000Mb
#p opt b3lyp/6-31G**

Conformer number 284. Energy MM = 0.000 kcal/mol

0 1
H         20.57400        4.45600        5.43800
C         21.35300        3.93400        4.85200
C         22.59900        3.90600        5.78200
H         20.99200        2.89000        4.54800
H         21.65200        4.54200        3.95100
H         22.44000        3.46500        6.74700
H         22.86400        4.97300        5.89300
C         23.73300        3.18500        5.17800
C         24.85100        2.90300        6.10300
H         23.36700        2.14800        4.92500
H         24.40700        2.19700        6.84400
H         25.26200        3.75400        6.71700
O         24.07300        3.95800        3.96800
H         24.64900        3.51800        3.35900
C         26.08500        2.24900        5.38400
H         26.33700        2.89400        4.58800
H         25.68400        1.33300        4.98900
H         26.88700        2.09800        5.99900
H         25.93000        4.58600       -1.24300
C         25.76700        4.29300       -0.18300
C         26.74800        3.10500        0.08800
H         25.90600        5.02900        0.58200
H         24.76400        3.90800       -0.21200
H         27.80900        3.43700        0.09700
H         26.62600        2.28300       -0.65000
C         26.69900        2.57400        1.48500
C         27.40800        1.27800        1.43000
H         27.24700        3.23100        2.15400
H         28.48200        1.33500        1.08600
H         26.91500        0.59900        0.70700
O         25.39300        2.40100        2.10000
H         25.14600        1.51900        1.96400
C         27.35500        0.43100        2.74900
H         26.29700        0.13800        3.01600
H         27.89900        0.93100        3.61100
H         27.82100       -0.60000        2.49100


