%chk=C10H24O2_pair_008_066.chk
%nproc=8
%mem=8000Mb
#p opt b3lyp/6-31G**

Conformer number 097. Energy MM = 0.000 kcal/mol

0 1
H         19.48700        1.80800        8.37300
C         20.53800        2.08400        8.45600
C         21.30900        0.91500        8.96700
H         20.88900        2.48600        7.42000
H         20.63200        2.96900        9.09100
H         21.32100        0.18600        8.13800
H         20.81400        0.45400        9.79300
C         22.65800        1.29300        9.29900
C         23.46200        0.06300        9.48500
H         23.09400        1.85400        8.40400
H         24.44000        0.37200        9.83600
H         23.59000       -0.36000        8.45700
O         22.77400        2.08100       10.44800
H         22.39900        2.94100       10.19400
C         22.90500       -0.87600       10.43300
H         23.73800       -1.55100       10.67700
H         22.03800       -1.42700        9.96700
H         22.70500       -0.42200       11.38000
H         13.19000        0.09200        5.16800
C         14.04300        0.79000        5.36700
C         14.46200        1.54000        4.11500
H         13.73900        1.37100        6.28600
H         15.03900        0.27700        5.77500
H         13.69400        2.25900        3.71100
H         14.69700        0.82900        3.24000
C         15.67300        2.30500        4.38200
C         16.90900        1.58800        4.66000
H         15.81300        2.85200        3.46400
H         17.11000        0.75100        3.94800
H         16.81700        0.96300        5.55300
O         15.24700        3.32300        5.28800
H         15.04600        2.80200        6.11200
C         18.13800        2.54100        4.82500
H         18.35500        2.67400        5.88100
H         18.12000        3.52600        4.35800
H         19.08700        2.06700        4.50600


