%chk=C10H24O2_pair_015_043.chk
%nproc=8
%mem=8000Mb
#p opt b3lyp/6-31G**

Conformer number 162. Energy MM = 0.000 kcal/mol

0 1
H         19.97000       10.36900       18.23100
C         20.01300       11.29400       17.64300
C         21.09900       12.18800       18.12300
H         20.34700       11.08000       16.60300
H         18.97400       11.62600       17.65800
H         22.15600       11.75400       18.10600
H         20.94700       12.47800       19.19700
C         21.21300       13.46300       17.45200
C         19.99600       14.24500       17.57700
H         22.07600       14.07400       17.82100
H         19.89200       14.44500       18.69000
H         19.10300       13.74900       17.23200
O         21.39500       13.24400       16.04700
H         22.21800       12.82100       16.10300
C         20.08700       15.59300       16.90200
H         19.20300       16.22500       17.03500
H         20.29700       15.46100       15.85900
H         20.82200       16.14900       17.35100
H         13.71900        6.77500       18.50100
C         14.14000        5.99300       19.12700
C         15.67000        6.02400       19.18100
H         13.81400        6.21500       20.16600
H         13.61000        5.15100       18.79000
H         16.15300        5.63100       18.26300
H         15.97500        5.29300       19.95100
C         16.23800        7.34600       19.47300
C         16.18200        8.27900       18.36500
H         15.75700        7.70700       20.38500
H         15.09600        8.50500       18.15200
H         16.77700        7.81000       17.56000
O         17.59400        7.20200       20.05100
H         18.05300        7.11400       19.17300
C         16.80600        9.63900       18.58500
H         17.87100        9.50300       18.91100
H         16.32300       10.12900       19.43900
H         16.81600       10.25600       17.71600


