%chk=C10H24O2_pair_007_014.chk
%nproc=8
%mem=8000Mb
#p opt b3lyp/6-31G**

Conformer number 079. Energy MM = 0.000 kcal/mol

0 1
H         22.93600        0.29600       -1.74400
C         23.63700        0.37400       -0.87600
C         23.09300        1.34700        0.17700
H         23.76600       -0.56100       -0.39100
H         24.65400        0.60800       -1.41100
H         23.43300        2.36100       -0.03900
H         23.52400        1.15900        1.12900
C         21.66200        1.28300        0.28500
C         21.15800        2.28500        1.21100
H         21.32600        1.47000       -0.75100
H         21.54500        3.30200        0.86700
H         21.69200        2.09100        2.15500
O         21.18300        0.01300        0.60600
H         21.62300       -0.62000        0.02700
C         19.65500        2.24600        1.32200
H         19.20800        2.56200        0.32000
H         19.35700        2.99200        2.10500
H         19.21200        1.19500        1.55800
H         18.47000        0.82100       -2.61200
C         19.05300        0.07500       -2.04400
C         18.38700       -1.34000       -1.89900
H         20.06100        0.03600       -2.55400
H         19.22400        0.55800       -1.06600
H         18.19200       -1.86500       -2.85500
H         17.43700       -1.14900       -1.35500
C         19.15500       -2.17800       -0.96600
C         18.75000       -3.57900       -0.80600
H         20.19100       -2.06900       -1.20000
H         17.63400       -3.66800       -0.74400
H         19.17800       -3.98600        0.21800
O         18.96500       -1.57600        0.35100
H         19.30200       -0.71800        0.21200
C         19.21600       -4.39800       -1.99700
H         20.27900       -4.52700       -1.95100
H         19.04000       -3.77700       -2.88400
H         18.70300       -5.33100       -2.10300


