%chk=C10H24O2_pair_082_098.chk
%nproc=8
%mem=8000Mb
#p opt b3lyp/6-31G**

Conformer number 587. Energy MM = 0.000 kcal/mol

0 1
H          1.46800        4.58600       -1.24300
C          1.30500        4.29300       -0.18300
C          2.28600        3.10500        0.08800
H          1.44400        5.02900        0.58200
H          0.30200        3.90800       -0.21200
H          3.34700        3.43700        0.09700
H          2.16400        2.28300       -0.65000
C          2.23700        2.57400        1.48500
C          2.94600        1.27800        1.43000
H          2.78500        3.23100        2.15400
H          4.02000        1.33500        1.08600
H          2.45300        0.59900        0.70700
O          0.93100        2.40100        2.10000
H          0.68400        1.51900        1.96400
C          2.89300        0.43100        2.74900
H          1.83500        0.13800        3.01600
H          3.43700        0.93100        3.61100
H          3.35900       -0.60000        2.49100
H          8.46500        1.73200       -1.51600
C          8.04700        2.17500       -0.61200
C          6.70900        2.82700       -0.87000
H          7.97600        1.34700        0.05300
H          8.70200        2.97700       -0.20400
H          6.37800        3.01700        0.16900
H          5.92100        2.13900       -1.35500
C          6.72000        4.04600       -1.63600
C          5.50700        4.82700       -1.73800
H          7.51000        4.70900       -1.26000
H          5.68700        5.79400       -2.25200
H          5.13700        5.13900       -0.71800
O          7.07700        3.81500       -2.97800
H          8.00400        3.62600       -2.99800
C          4.31200        4.24400       -2.58200
H          4.05000        3.26200       -2.21900
H          4.63700        4.17100       -3.62700
H          3.34000        4.77900       -2.46800


