%chk=C10H24O2_pair_041_050.chk
%nproc=8
%mem=8000Mb
#p opt b3lyp/6-31G**

Conformer number 397. Energy MM = 0.000 kcal/mol

0 1
H         16.23400       15.33000       10.90200
C         15.45300       14.60500       11.19500
C         15.71400       13.26100       10.44400
H         15.37400       14.63200       12.29600
H         14.56000       15.08500       10.85100
H         16.74300       12.92200       10.82000
H         15.88300       13.50800        9.37500
C         14.61700       12.29700       10.60400
C         14.92000       10.86600       10.40700
H         14.25800       12.37400       11.62900
H         13.99800       10.31600       10.45200
H         15.62400       10.55000       11.25700
O         13.48000       12.64700        9.78400
H         13.17700       13.49900       10.06500
C         15.64500       10.53700        9.12200
H         16.44600       11.25500        8.90400
H         14.96800       10.68700        8.32900
H         16.15600        9.56900        9.12300
H         14.20200       13.56400       13.91700
C         14.13800       13.81000       14.98300
C         12.81000       14.60300       15.18900
H         14.18200       12.87100       15.50300
H         15.03400       14.39900       15.26200
H         12.01200       13.83400       15.05700
H         12.68900       15.36200       14.39600
C         12.63000       15.05400       16.49700
C         11.26700       15.34200       16.89200
H         12.92800       14.25300       17.17800
H         10.55800       14.56200       16.44200
H         11.03300       16.32800       16.46400
O         13.47400       16.16900       16.71100
H         14.35600       15.77200       16.60200
C         11.22800       15.44000       18.39000
H         10.31000       15.92900       18.77100
H         11.94300       16.19900       18.75900
H         11.39400       14.46600       18.85900


