%chk=C10H24O2_pair_004_007.chk
%nproc=8
%mem=8000Mb
#p opt b3lyp/6-31G**

Conformer number 047. Energy MM = 0.000 kcal/mol

0 1
H         17.94100       21.31000        5.92100
C         17.92600       22.31100        6.41200
C         18.84500       23.41300        5.80800
H         16.85500       22.61200        6.36000
H         18.15400       22.09200        7.47900
H         18.69300       24.37200        6.27100
H         18.40700       23.63300        4.75500
C         20.24900       23.03900        5.71800
C         21.16700       24.00600        5.10300
H         20.65900       23.01200        6.75300
H         22.18200       23.62000        5.14700
H         21.15700       24.90100        5.75800
O         20.47700       21.75300        5.15900
H         19.95400       21.81200        4.31000
C         20.90200       24.42100        3.67100
H         21.52700       25.25900        3.29300
H         19.88900       24.81000        3.50200
H         21.07800       23.55700        3.01100
H         22.93600       24.75800       -1.74400
C         23.63700       24.83600       -0.87600
C         23.09300       25.80900        0.17700
H         23.76600       23.90100       -0.39100
H         24.65400       25.07000       -1.41100
H         23.43300       26.82300       -0.03900
H         23.52400       25.62100        1.12900
C         21.66200       25.74500        0.28500
C         21.15800       26.74700        1.21100
H         21.32600       25.93200       -0.75100
H         21.54500       27.76400        0.86700
H         21.69200       26.55300        2.15500
O         21.18300       24.47500        0.60600
H         21.62300       23.84200        0.02700
C         19.65500       26.70800        1.32200
H         19.20800       27.02400        0.32000
H         19.35700       27.45400        2.10500
H         19.21200       25.65700        1.55800


