%chk=C10H24O2_pair_003_020.chk
%nproc=8
%mem=8000Mb
#p opt b3lyp/6-31G**

Conformer number 038. Energy MM = 0.000 kcal/mol

0 1
H         19.99400        1.66500       12.36000
C         19.77900        2.69000       12.56500
C         18.94600        3.30900       11.42700
H         19.30200        2.74700       13.54400
H         20.75500        3.22300       12.63000
H         19.64000        3.62700       10.63900
H         18.38500        4.15800       11.81700
C         18.00700        2.38600       10.86000
C         17.32400        2.92900        9.74000
H         18.60900        1.47200       10.55400
H         18.05500        3.38700        9.14300
H         16.54600        3.63600       10.08700
O         17.03800        2.13600       11.83500
H         16.69600        3.01900       12.02500
C         16.72300        1.91300        8.73300
H         16.10000        2.45200        7.98900
H         16.01800        1.24600        9.23600
H         17.52900        1.31400        8.13500
H         15.19500        7.26900        9.71900
C         14.17000        6.96500        9.57200
C         14.04400        6.80200        8.06300
H         14.13700        5.97000       10.06700
H         13.51600        7.73300       10.00700
H         14.15300        7.79800        7.58000
H         13.06100        6.43300        7.83200
C         14.94500        5.74900        7.44700
C         16.36100        6.15000        7.66200
H         14.79800        4.72800        7.79400
H         16.62000        6.12600        8.71100
H         16.49600        7.25900        7.37900
O         14.70800        5.70800        6.05600
H         15.06500        4.83500        5.77300
C         17.43000        5.24400        6.93600
H         17.43800        4.20400        7.30100
H         18.46500        5.62100        7.06500
H         17.31000        5.12700        5.81500


