%chk=C10H24O2_pair_010_018.chk
%nproc=8
%mem=8000Mb
#p opt b3lyp/6-31G**

Conformer number 108. Energy MM = 0.000 kcal/mol

0 1
H          2.58800        3.91500       12.36700
C          3.48600        3.27800       12.62100
C          2.95500        1.81900       12.82900
H          4.20300        3.39200       11.73800
H          3.94300        3.60800       13.49500
H          2.19300        1.72700       13.58700
H          3.76800        1.24100       13.05400
C          2.23300        1.34400       11.65200
C          3.01600        1.19000       10.40400
H          1.81900        0.36000       11.96000
H          3.79800        0.38400       10.58700
H          3.57100        2.09700       10.18200
O          1.07900        2.17900       11.60000
H          0.47600        1.69300       10.96100
C          2.22500        0.72600        9.17300
H          1.40700        1.44700        8.92900
H          1.91900       -0.28600        9.25600
H          2.87400        0.63400        8.34300
H          8.16400        4.53300        7.77200
C          8.56600        4.79700        8.80100
C          8.47200        3.69400        9.84000
H          9.71200        4.99900        8.74500
H          8.11100        5.71800        9.11300
H          8.86600        4.12100       10.77900
H          9.04300        2.80100        9.44800
C          7.08900        3.29600       10.15100
C          6.94900        2.08300       10.98800
H          6.56200        4.11600       10.69600
H          7.17100        1.17700       10.32400
H          5.87900        1.93500       11.24400
O          6.45400        2.93800        8.93300
H          6.31300        3.72200        8.41200
C          7.71000        1.99200       12.33300
H          7.24300        2.56300       13.17200
H          8.73700        2.29100       12.18000
H          7.81700        0.95700       12.66500


