%chk=C10H24O2_pair_018_033.chk
%nproc=8
%mem=8000Mb
#p opt b3lyp/6-31G**

Conformer number 194. Energy MM = 0.000 kcal/mol

0 1
H          8.16400        4.53300        7.77200
C          8.56600        4.79700        8.80100
C          8.47200        3.69400        9.84000
H          9.71200        4.99900        8.74500
H          8.11100        5.71800        9.11300
H          8.86600        4.12100       10.77900
H          9.04300        2.80100        9.44800
C          7.08900        3.29600       10.15100
C          6.94900        2.08300       10.98800
H          6.56200        4.11600       10.69600
H          7.17100        1.17700       10.32400
H          5.87900        1.93500       11.24400
O          6.45400        2.93800        8.93300
H          6.31300        3.72200        8.41200
C          7.71000        1.99200       12.33300
H          7.24300        2.56300       13.17200
H          8.73700        2.29100       12.18000
H          7.81700        0.95700       12.66500
H         14.06500        2.54300        9.94500
C         13.09600        2.48300        9.50300
C         12.06700        3.32400       10.10500
H         13.23200        2.72000        8.45400
H         12.75200        1.43400        9.52400
H         11.14600        3.11500        9.58300
H         12.34100        4.37200        9.91600
C         11.87500        3.13700       11.52900
C         11.40200        4.43500       12.08700
H         11.07600        2.39100       11.78000
H         10.78700        4.99100       11.41900
H         12.33900        4.91500       12.20600
O         13.14900        2.76100       12.21000
H         13.09700        1.74800       12.29100
C         10.76300        4.10600       13.43100
H          9.83500        3.58800       13.28900
H         10.56500        4.84400       14.20400
H         11.31800        3.33100       13.95100


