%chk=C10H24O2_pair_036_096.chk
%nproc=8
%mem=8000Mb
#p opt b3lyp/6-31G**

Conformer number 361. Energy MM = 0.000 kcal/mol

0 1
H         15.86800        5.45700       23.97600
C         15.07300        5.46000       23.20900
C         14.92300        4.13900       22.44600
H         14.09800        5.72200       23.64200
H         15.35700        6.31500       22.60900
H         15.70300        4.03600       21.65500
H         14.00500        4.24700       21.84700
C         14.81000        2.90600       23.25200
C         15.87400        2.65400       24.29300
H         13.84300        3.03300       23.78200
H         15.58400        3.37800       25.05700
H         16.86300        2.96200       23.89900
O         14.63600        1.84300       22.33800
H         14.35400        1.08500       22.86200
C         15.93600        1.29000       24.81600
H         14.92700        0.96600       25.15800
H         16.70600        1.04400       25.53500
H         16.14000        0.63500       23.92100
H         13.80000        1.60500       18.68600
C         14.40000        2.25500       18.01400
C         15.60900        2.56500       18.86900
H         14.56900        1.66200       17.15400
H         13.92500        3.22300       17.70000
H         15.22900        3.19900       19.67200
H         16.33000        3.14500       18.23800
C         16.13100        1.32600       19.46700
C         16.74800        0.38000       18.59000
H         16.87800        1.61800       20.24200
H         17.62700        0.83200       17.96900
H         16.01200        0.02500       17.78800
O         15.03400        0.72300       20.13700
H         14.70300        1.40700       20.79600
C         17.37400       -0.71900       19.42300
H         18.19800       -0.30300       20.00800
H         17.80800       -1.59200       18.91200
H         16.69700       -1.21700       20.17800


