%chk=C10H24O2_pair_036_056.chk
%nproc=8
%mem=8000Mb
#p opt b3lyp/6-31G**

Conformer number 355. Energy MM = 0.000 kcal/mol

0 1
H         15.86800        5.45700       23.97600
C         15.07300        5.46000       23.20900
C         14.92300        4.13900       22.44600
H         14.09800        5.72200       23.64200
H         15.35700        6.31500       22.60900
H         15.70300        4.03600       21.65500
H         14.00500        4.24700       21.84700
C         14.81000        2.90600       23.25200
C         15.87400        2.65400       24.29300
H         13.84300        3.03300       23.78200
H         15.58400        3.37800       25.05700
H         16.86300        2.96200       23.89900
O         14.63600        1.84300       22.33800
H         14.35400        1.08500       22.86200
C         15.93600        1.29000       24.81600
H         14.92700        0.96600       25.15800
H         16.70600        1.04400       25.53500
H         16.14000        0.63500       23.92100
H         12.74100        9.42200       23.38300
C         12.68000        8.63600       24.15200
C         12.46700        9.32800       25.49400
H         11.81600        7.91700       24.03700
H         13.64500        8.07300       24.14700
H         13.46500        9.85000       25.84600
H         12.32100        8.57000       26.33300
C         11.37300       10.24300       25.72700
C         11.33900       10.57400       27.16700
H         11.45300       11.20900       25.19300
H         11.41300        9.68400       27.86200
H         10.42400       11.10200       27.42100
O         10.11900        9.62000       25.42800
H         10.09500        8.78500       25.91300
C         12.38500       11.62300       27.52400
H         13.44200       11.33100       27.39700
H         12.42200       11.83200       28.57200
H         12.17100       12.50000       26.93800


