%chk=C10H24O2_pair_022_087.chk
%nproc=8
%mem=8000Mb
#p opt b3lyp/6-31G**

Conformer number 237. Energy MM = 0.000 kcal/mol

0 1
H          1.16200       18.19500        7.18500
C          1.71800       17.28200        7.16500
C          1.06300       16.13900        6.46900
H          2.62700       17.52500        6.51000
H          2.06900       17.00900        8.08500
H          0.69100       16.31200        5.39400
H          0.15600       15.82600        7.01600
C          1.80100       14.89700        6.50900
C          1.20200       13.79400        5.76800
H          2.79600       15.11000        6.10700
H          1.94400       12.96800        5.63200
H          0.97300       14.17700        4.79700
O          2.05500       14.58900        7.84300
H          1.16500       14.47600        8.23600
C         -0.04700       13.20300        6.36300
H         -0.49100       12.46200        5.58200
H         -0.74800       14.01300        6.60700
H          0.13800       12.67100        7.32000
H         -0.17900       10.52500        4.03500
C         -0.25500       11.30200        3.19100
C         -0.98700       10.56700        2.03800
H         -0.84400       12.19500        3.55800
H          0.69300       11.69700        2.90900
H         -1.92200       10.10600        2.39400
H         -0.34900        9.65900        1.85200
C         -1.24300       11.50400        0.92700
C         -1.90900       10.97500       -0.26500
H         -1.77300       12.37300        1.27900
H         -2.87100       10.60000        0.05000
H         -1.28500       10.13700       -0.61700
O          0.09800       11.88500        0.47400
H          0.55000       11.04100        0.32800
C         -1.83300       11.95300       -1.46200
H         -2.68000       11.87300       -2.11600
H         -0.99700       11.73900       -2.10200
H         -1.74300       13.02400       -1.15300


