%chk=C10H24O2_pair_051_091.chk
%nproc=8
%mem=8000Mb
#p opt b3lyp/6-31G**

Conformer number 461. Energy MM = 0.000 kcal/mol

0 1
H         22.09300       20.56200       -1.02000
C         22.78300       20.69300       -0.18600
C         22.08300       20.98500        1.15400
H         23.24200       19.71700       -0.14800
H         23.60600       21.44400       -0.46100
H         21.33500       20.22000        1.32600
H         21.59900       21.95000        1.19400
C         22.95600       21.05600        2.40700
C         24.00600       22.07800        2.33000
H         22.37100       21.47100        3.28200
H         23.48200       23.02900        2.18300
H         24.82000       21.92000        1.58700
O         23.51800       19.80500        2.82400
H         22.80500       19.20700        2.90400
C         24.75600       22.20900        3.73100
H         25.34700       23.13900        3.75900
H         25.45900       21.32800        3.93500
H         24.09600       22.47200        4.59000
H         22.05300       23.50000       -3.27600
C         22.29700       22.47800       -3.62500
C         23.78700       22.45800       -4.15600
H         22.09600       21.72000       -2.86200
H         21.53400       22.42700       -4.47300
H         24.32700       22.39400       -3.19300
H         24.01900       23.44000       -4.65900
C         24.13900       21.36000       -5.06400
C         25.51300       21.12400       -5.47400
H         23.84500       20.46800       -4.48400
H         26.25000       21.07900       -4.55200
H         25.78800       22.02800       -6.05300
O         23.35500       21.47000       -6.25700
H         22.71500       20.74600       -6.41500
C         25.51400       19.80000       -6.22200
H         25.12100       19.01500       -5.48800
H         26.51600       19.48100       -6.55500
H         24.87600       19.81700       -7.14800


