%chk=C10H24O2_pair_010_075.chk
%nproc=8
%mem=8000Mb
#p opt b3lyp/6-31G**

Conformer number 116. Energy MM = 0.000 kcal/mol

0 1
H          2.58800        3.91500       12.36700
C          3.48600        3.27800       12.62100
C          2.95500        1.81900       12.82900
H          4.20300        3.39200       11.73800
H          3.94300        3.60800       13.49500
H          2.19300        1.72700       13.58700
H          3.76800        1.24100       13.05400
C          2.23300        1.34400       11.65200
C          3.01600        1.19000       10.40400
H          1.81900        0.36000       11.96000
H          3.79800        0.38400       10.58700
H          3.57100        2.09700       10.18200
O          1.07900        2.17900       11.60000
H          0.47600        1.69300       10.96100
C          2.22500        0.72600        9.17300
H          1.40700        1.44700        8.92900
H          1.91900       -0.28600        9.25600
H          2.87400        0.63400        8.34300
H          0.65600       -1.31400       13.12200
C          1.00100       -2.36800       12.81500
C          2.45900       -2.39600       12.34900
H          0.81000       -3.00600       13.73500
H          0.27200       -2.65100       12.07000
H          3.08900       -2.82700       13.17700
H          2.91400       -1.39400       12.18800
C          2.66700       -3.28500       11.16900
C          2.21100       -4.67100       11.35100
H          2.08000       -2.82500       10.39100
H          1.19800       -4.78000       11.69500
H          2.88100       -5.07400       12.18000
O          4.02800       -3.33500       10.87300
H          4.46900       -3.65800       11.69600
C          2.25900       -5.71200       10.15600
H          2.00900       -6.69500       10.69500
H          3.21200       -5.60000        9.62600
H          1.50800       -5.62600        9.36400


