%chk=C10H24O2_pair_028_031.chk
%nproc=8
%mem=8000Mb
#p opt b3lyp/6-31G**

Conformer number 285. Energy MM = 0.000 kcal/mol

0 1
H         10.04500       13.26300        3.68000
C          9.60900       14.11800        3.07600
C          8.71000       15.07300        3.94600
H         10.53200       14.69700        2.82800
H          9.20900       13.72700        2.08800
H          9.13500       15.29400        4.95400
H          7.78400       14.52900        4.18500
C          8.34300       16.37800        3.39000
C          7.67800       16.41600        2.06800
H          7.58400       16.79800        4.02600
H          6.67000       15.96200        2.13800
H          8.32200       16.02500        1.28400
O          9.45200       17.28400        3.29600
H          9.30800       18.03400        3.93100
C          7.42300       17.86800        1.71800
H          8.25300       18.34400        1.16000
H          7.29100       18.43800        2.72300
H          6.54100       18.05700        1.19200
H          3.67000       21.61700        3.82500
C          3.75700       21.02400        2.89700
C          3.62500       19.45600        3.04300
H          2.98600       21.47700        2.15600
H          4.71000       21.36500        2.42300
H          4.26300       19.13200        3.89800
H          4.03900       19.06000        2.11700
C          2.30000       18.93100        3.20900
C          2.17900       17.45400        3.25000
H          1.91000       19.19700        4.18900
H          2.49000       16.99100        4.23000
H          2.79700       16.97000        2.45500
O          1.59000       19.45700        2.15000
H          0.74500       19.65400        2.54300
C          0.73900       16.96000        3.03400
H          0.65100       15.84300        3.24400
H          0.39400       17.21400        2.02500
H         -0.01900       17.47600        3.64000


