%chk=C10H24O2_pair_007_051.chk
%nproc=8
%mem=8000Mb
#p opt b3lyp/6-31G**

Conformer number 084. Energy MM = 0.000 kcal/mol

0 1
H         22.93600        0.29600       -1.74400
C         23.63700        0.37400       -0.87600
C         23.09300        1.34700        0.17700
H         23.76600       -0.56100       -0.39100
H         24.65400        0.60800       -1.41100
H         23.43300        2.36100       -0.03900
H         23.52400        1.15900        1.12900
C         21.66200        1.28300        0.28500
C         21.15800        2.28500        1.21100
H         21.32600        1.47000       -0.75100
H         21.54500        3.30200        0.86700
H         21.69200        2.09100        2.15500
O         21.18300        0.01300        0.60600
H         21.62300       -0.62000        0.02700
C         19.65500        2.24600        1.32200
H         19.20800        2.56200        0.32000
H         19.35700        2.99200        2.10500
H         19.21200        1.19500        1.55800
H         22.09300       -3.90000       -1.02000
C         22.78300       -3.76900       -0.18600
C         22.08300       -3.47700        1.15400
H         23.24200       -4.74500       -0.14800
H         23.60600       -3.01800       -0.46100
H         21.33500       -4.24200        1.32600
H         21.59900       -2.51200        1.19400
C         22.95600       -3.40600        2.40700
C         24.00600       -2.38400        2.33000
H         22.37100       -2.99100        3.28200
H         23.48200       -1.43300        2.18300
H         24.82000       -2.54200        1.58700
O         23.51800       -4.65700        2.82400
H         22.80500       -5.25500        2.90400
C         24.75600       -2.25300        3.73100
H         25.34700       -1.32300        3.75900
H         25.45900       -3.13400        3.93500
H         24.09600       -1.99000        4.59000


