%chk=C10H24O2_pair_031_059.chk
%nproc=8
%mem=8000Mb
#p opt b3lyp/6-31G**

Conformer number 319. Energy MM = 0.000 kcal/mol

0 1
H          3.67000       21.61700        3.82500
C          3.75700       21.02400        2.89700
C          3.62500       19.45600        3.04300
H          2.98600       21.47700        2.15600
H          4.71000       21.36500        2.42300
H          4.26300       19.13200        3.89800
H          4.03900       19.06000        2.11700
C          2.30000       18.93100        3.20900
C          2.17900       17.45400        3.25000
H          1.91000       19.19700        4.18900
H          2.49000       16.99100        4.23000
H          2.79700       16.97000        2.45500
O          1.59000       19.45700        2.15000
H          0.74500       19.65400        2.54300
C          0.73900       16.96000        3.03400
H          0.65100       15.84300        3.24400
H          0.39400       17.21400        2.02500
H         -0.01900       17.47600        3.64000
H          6.07100       19.73600       -3.16800
C          5.48200       20.32900       -3.91300
C          5.11400       21.74500       -3.32300
H          6.13100       20.53600       -4.79200
H          4.58800       19.74500       -4.33400
H          4.72500       22.48200       -4.08600
H          5.94300       22.19700       -2.85700
C          4.23200       21.46900       -2.19400
C          3.44700       22.67800       -1.88100
H          3.37200       20.84200       -2.64000
H          2.80900       23.02400       -2.78800
H          4.15100       23.50700       -1.73900
O          4.91300       20.90000       -1.09200
H          4.20100       20.43800       -0.55500
C          2.39200       22.42000       -0.79400
H          1.73000       21.59100       -1.13900
H          2.00900       23.39400       -0.50100
H          2.95100       22.15600        0.19500


