%chk=C10H24O2_pair_018_073.chk
%nproc=8
%mem=8000Mb
#p opt b3lyp/6-31G**

Conformer number 200. Energy MM = 0.000 kcal/mol

0 1
H          8.16400        4.53300        7.77200
C          8.56600        4.79700        8.80100
C          8.47200        3.69400        9.84000
H          9.71200        4.99900        8.74500
H          8.11100        5.71800        9.11300
H          8.86600        4.12100       10.77900
H          9.04300        2.80100        9.44800
C          7.08900        3.29600       10.15100
C          6.94900        2.08300       10.98800
H          6.56200        4.11600       10.69600
H          7.17100        1.17700       10.32400
H          5.87900        1.93500       11.24400
O          6.45400        2.93800        8.93300
H          6.31300        3.72200        8.41200
C          7.71000        1.99200       12.33300
H          7.24300        2.56300       13.17200
H          8.73700        2.29100       12.18000
H          7.81700        0.95700       12.66500
H         10.59100       -0.16800       10.74800
C         10.16600       -0.86300       11.58100
C         10.59400       -0.35700       12.95500
H          9.04500       -0.99300       11.45300
H         10.51100       -1.89500       11.31700
H         10.05500       -0.80800       13.80000
H         10.25700        0.73500       12.99000
C         12.01700       -0.53700       13.19200
C         12.48400       -0.01800       14.49700
H         12.32400       -1.60800       13.18800
H         11.95700       -0.57600       15.26300
H         12.23000        1.04200       14.61300
O         12.81200        0.07200       12.12500
H         13.18100       -0.70900       11.71100
C         13.93400       -0.10500       14.67000
H         14.41300       -1.02100       14.27600
H         14.37900       -0.05700       15.71900
H         14.39700        0.61800       14.04400


