%chk=C10H24O2_pair_027_066.chk
%nproc=8
%mem=8000Mb
#p opt b3lyp/6-31G**

Conformer number 283. Energy MM = 0.000 kcal/mol

0 1
H         20.57400        4.45600        5.43800
C         21.35300        3.93400        4.85200
C         22.59900        3.90600        5.78200
H         20.99200        2.89000        4.54800
H         21.65200        4.54200        3.95100
H         22.44000        3.46500        6.74700
H         22.86400        4.97300        5.89300
C         23.73300        3.18500        5.17800
C         24.85100        2.90300        6.10300
H         23.36700        2.14800        4.92500
H         24.40700        2.19700        6.84400
H         25.26200        3.75400        6.71700
O         24.07300        3.95800        3.96800
H         24.64900        3.51800        3.35900
C         26.08500        2.24900        5.38400
H         26.33700        2.89400        4.58800
H         25.68400        1.33300        4.98900
H         26.88700        2.09800        5.99900
H         13.19000        0.09200        5.16800
C         14.04300        0.79000        5.36700
C         14.46200        1.54000        4.11500
H         13.73900        1.37100        6.28600
H         15.03900        0.27700        5.77500
H         13.69400        2.25900        3.71100
H         14.69700        0.82900        3.24000
C         15.67300        2.30500        4.38200
C         16.90900        1.58800        4.66000
H         15.81300        2.85200        3.46400
H         17.11000        0.75100        3.94800
H         16.81700        0.96300        5.55300
O         15.24700        3.32300        5.28800
H         15.04600        2.80200        6.11200
C         18.13800        2.54100        4.82500
H         18.35500        2.67400        5.88100
H         18.12000        3.52600        4.35800
H         19.08700        2.06700        4.50600


