%chk=C10H24O2_pair_033_073.chk
%nproc=8
%mem=8000Mb
#p opt b3lyp/6-31G**

Conformer number 335. Energy MM = 0.000 kcal/mol

0 1
H         14.06500        2.54300        9.94500
C         13.09600        2.48300        9.50300
C         12.06700        3.32400       10.10500
H         13.23200        2.72000        8.45400
H         12.75200        1.43400        9.52400
H         11.14600        3.11500        9.58300
H         12.34100        4.37200        9.91600
C         11.87500        3.13700       11.52900
C         11.40200        4.43500       12.08700
H         11.07600        2.39100       11.78000
H         10.78700        4.99100       11.41900
H         12.33900        4.91500       12.20600
O         13.14900        2.76100       12.21000
H         13.09700        1.74800       12.29100
C         10.76300        4.10600       13.43100
H          9.83500        3.58800       13.28900
H         10.56500        4.84400       14.20400
H         11.31800        3.33100       13.95100
H         10.59100       -0.16800       10.74800
C         10.16600       -0.86300       11.58100
C         10.59400       -0.35700       12.95500
H          9.04500       -0.99300       11.45300
H         10.51100       -1.89500       11.31700
H         10.05500       -0.80800       13.80000
H         10.25700        0.73500       12.99000
C         12.01700       -0.53700       13.19200
C         12.48400       -0.01800       14.49700
H         12.32400       -1.60800       13.18800
H         11.95700       -0.57600       15.26300
H         12.23000        1.04200       14.61300
O         12.81200        0.07200       12.12500
H         13.18100       -0.70900       11.71100
C         13.93400       -0.10500       14.67000
H         14.41300       -1.02100       14.27600
H         14.37900       -0.05700       15.71900
H         14.39700        0.61800       14.04400


