%chk=C10H24O2_pair_067_088.chk
%nproc=8
%mem=8000Mb
#p opt b3lyp/6-31G**

Conformer number 538. Energy MM = 0.000 kcal/mol

0 1
H          7.87500        1.16800       20.95800
C          7.07700        0.61000       20.42100
C          5.86600        1.45100       19.95500
H          7.51900        0.07100       19.55200
H          6.64100       -0.12400       21.10100
H          5.50900        2.07600       20.80700
H          5.03400        0.79300       19.86300
C          5.90700        2.26100       18.78000
C          6.02900        1.56100       17.49700
H          4.98500        2.86600       18.77900
H          5.43800        0.64900       17.37700
H          7.12100        1.23300       17.35000
O          7.07200        3.11600       18.88400
H          6.93100        3.44400       19.73000
C          5.74500        2.52400       16.37900
H          5.70900        2.22600       15.35200
H          6.50300        3.30800       16.44900
H          4.77500        2.95900       16.58500
H          3.19100       10.15600       20.56400
C          3.51100        9.62500       19.63100
C          4.69000        8.71200       19.88700
H          2.60100        9.09200       19.44400
H          3.76400       10.35500       18.83800
H          4.42800        7.92400       20.60600
H          5.51300        9.29500       20.34600
C          5.13900        7.91700       18.73700
C          6.00500        6.78800       19.20400
H          4.17700        7.49100       18.37200
H          5.39000        5.89700       19.51700
H          6.57300        7.05000       20.19000
O          5.60400        8.73800       17.65300
H          6.02800        8.10800       17.06600
C          7.10600        6.29300       18.23900
H          7.62900        5.37600       18.59900
H          7.85200        7.05300       18.15500
H          6.66400        5.97100       17.31300


