%chk=C10H24O2_pair_035_075.chk
%nproc=8
%mem=8000Mb
#p opt b3lyp/6-31G**

Conformer number 348. Energy MM = 0.000 kcal/mol

0 1
H          2.39900        1.38200       21.67800
C          1.69200        1.13400       20.84400
C          2.38000        1.00300       19.56200
H          1.09800        0.26700       21.13000
H          1.04300        1.95100       20.89400
H          3.11900        0.17000       19.76600
H          2.94500        1.95200       19.26800
C          1.62300        0.63700       18.35200
C          2.43800        0.50500       17.19300
H          1.21600       -0.35200       18.55200
H          3.16700       -0.26500       17.49900
H          2.99400        1.51000       17.08500
O          0.49600        1.49000       18.24000
H         -0.09500        0.94500       17.79000
C          1.81900        0.16800       15.89000
H          2.62900        0.15900       15.17800
H          1.08000        0.97200       15.70200
H          1.24600       -0.82000       15.81600
H          0.65600       -1.31400       13.12200
C          1.00100       -2.36800       12.81500
C          2.45900       -2.39600       12.34900
H          0.81000       -3.00600       13.73500
H          0.27200       -2.65100       12.07000
H          3.08900       -2.82700       13.17700
H          2.91400       -1.39400       12.18800
C          2.66700       -3.28500       11.16900
C          2.21100       -4.67100       11.35100
H          2.08000       -2.82500       10.39100
H          1.19800       -4.78000       11.69500
H          2.88100       -5.07400       12.18000
O          4.02800       -3.33500       10.87300
H          4.46900       -3.65800       11.69600
C          2.25900       -5.71200       10.15600
H          2.00900       -6.69500       10.69500
H          3.21200       -5.60000        9.62600
H          1.50800       -5.62600        9.36400


