%chk=C10H24O2_pair_028_076.chk
%nproc=8
%mem=8000Mb
#p opt b3lyp/6-31G**

Conformer number 293. Energy MM = 0.000 kcal/mol

0 1
H         10.04500       13.26300        3.68000
C          9.60900       14.11800        3.07600
C          8.71000       15.07300        3.94600
H         10.53200       14.69700        2.82800
H          9.20900       13.72700        2.08800
H          9.13500       15.29400        4.95400
H          7.78400       14.52900        4.18500
C          8.34300       16.37800        3.39000
C          7.67800       16.41600        2.06800
H          7.58400       16.79800        4.02600
H          6.67000       15.96200        2.13800
H          8.32200       16.02500        1.28400
O          9.45200       17.28400        3.29600
H          9.30800       18.03400        3.93100
C          7.42300       17.86800        1.71800
H          8.25300       18.34400        1.16000
H          7.29100       18.43800        2.72300
H          6.54100       18.05700        1.19200
H          7.51500       11.99200        4.51700
C          6.40400       12.17000        4.43500
C          5.75700       12.17400        5.79500
H          6.17200       13.08700        3.92900
H          6.01000       11.35400        3.83800
H          4.90300       11.52500        5.84600
H          5.45200       13.15400        5.97900
C          6.62200       11.71500        6.94100
C          7.16100       10.33400        6.99400
H          7.61400       12.33500        7.05500
H          7.43300       10.18200        8.06100
H          8.08600       10.18500        6.35400
O          5.78300       11.82600        8.08100
H          5.55000       12.70700        8.05500
C          6.25100        9.15100        6.72100
H          6.91100        8.24600        6.84300
H          5.71400        9.24300        5.75300
H          5.53800        9.04800        7.59200


