%chk=C10H24O2_pair_001_043.chk
%nproc=8
%mem=8000Mb
#p opt b3lyp/6-31G**

Conformer number 015. Energy MM = 0.000 kcal/mol

0 1
H         15.44800       12.97300       17.13200
C         15.79600       12.90600       18.11800
C         15.40400       14.17100       18.92200
H         15.14500       12.12200       18.50300
H         16.78800       12.61400       18.20000
H         15.60000       13.89900       19.98900
H         14.31100       14.39400       18.79000
C         16.11100       15.32100       18.49100
C         15.84500       16.63600       19.19500
H         17.19700       15.07300       18.62700
H         15.78500       16.48600       20.25100
H         14.85000       17.02100       18.92300
O         15.97100       15.61000       17.10900
H         16.32800       16.49800       16.89100
C         17.04400       17.72700       19.04200
H         17.03600       18.57200       19.65100
H         17.07300       18.10200       18.03400
H         17.95000       17.14600       19.34800
H         13.71900        6.77500       18.50100
C         14.14000        5.99300       19.12700
C         15.67000        6.02400       19.18100
H         13.81400        6.21500       20.16600
H         13.61000        5.15100       18.79000
H         16.15300        5.63100       18.26300
H         15.97500        5.29300       19.95100
C         16.23800        7.34600       19.47300
C         16.18200        8.27900       18.36500
H         15.75700        7.70700       20.38500
H         15.09600        8.50500       18.15200
H         16.77700        7.81000       17.56000
O         17.59400        7.20200       20.05100
H         18.05300        7.11400       19.17300
C         16.80600        9.63900       18.58500
H         17.87100        9.50300       18.91100
H         16.32300       10.12900       19.43900
H         16.81600       10.25600       17.71600


