%chk=C10H24O2_pair_032_088.chk
%nproc=8
%mem=8000Mb
#p opt b3lyp/6-31G**

Conformer number 326. Energy MM = 0.000 kcal/mol

0 1
H          7.96400        8.05900       22.05000
C          8.40700        8.92400       22.63100
C          7.77500       10.31400       22.38900
H          8.23100        8.78600       23.71200
H          9.51400        8.98400       22.52200
H          6.73600       10.16100       22.13600
H          8.29300       10.75600       21.48900
C          7.91000       11.24400       23.45500
C          7.20200       12.49100       23.19500
H          7.38500       10.78600       24.28500
H          6.16800       12.23700       22.99700
H          7.60800       12.95200       22.27500
O          9.26100       11.53200       23.64000
H          9.65700       10.80300       24.13800
C          7.39000       13.52800       24.32000
H          8.42600       13.85900       24.41100
H          6.97700       13.13100       25.21300
H          6.77500       14.46300       24.09300
H          3.19100       10.15600       20.56400
C          3.51100        9.62500       19.63100
C          4.69000        8.71200       19.88700
H          2.60100        9.09200       19.44400
H          3.76400       10.35500       18.83800
H          4.42800        7.92400       20.60600
H          5.51300        9.29500       20.34600
C          5.13900        7.91700       18.73700
C          6.00500        6.78800       19.20400
H          4.17700        7.49100       18.37200
H          5.39000        5.89700       19.51700
H          6.57300        7.05000       20.19000
O          5.60400        8.73800       17.65300
H          6.02800        8.10800       17.06600
C          7.10600        6.29300       18.23900
H          7.62900        5.37600       18.59900
H          7.85200        7.05300       18.15500
H          6.66400        5.97100       17.31300


