%chk=C10H24O2_pair_034_037.chk
%nproc=8
%mem=8000Mb
#p opt b3lyp/6-31G**

Conformer number 338. Energy MM = 0.000 kcal/mol

0 1
H          3.80700        5.15600       10.25400
C          2.99500        4.96100        9.55200
C          3.53200        4.47500        8.20900
H          2.27300        4.19800       10.05900
H          2.45000        5.94100        9.36500
H          2.83000        4.43000        7.38600
H          3.91800        3.50000        8.39500
C          4.63200        5.28100        7.62200
C          5.31700        4.65500        6.48700
H          4.20400        6.23700        7.25100
H          4.54500        4.14400        5.86200
H          6.00600        3.86900        6.78800
O          5.61500        5.55700        8.59500
H          5.39800        6.48500        8.81400
C          6.02300        5.62100        5.52200
H          5.33500        6.38200        5.14100
H          6.51800        5.17300        4.65000
H          6.80700        6.07000        6.11900
H          3.78300       12.20400       10.95800
C          2.73000       12.39700       10.62200
C          2.04100       11.20800       10.07500
H          2.26200       12.70500       11.56600
H          2.76800       13.32500        9.91800
H          0.94500       11.32100        9.91300
H          2.17500       10.40200       10.85800
C          2.68400       10.78900        8.85900
C          1.93400        9.79700        8.09100
H          2.78400       11.61200        8.15800
H          1.78000        8.89200        8.68900
H          0.94200       10.24900        7.66700
O          4.05700       10.40000        9.18600
H          4.63500       10.95400        8.62400
C          2.74100        9.28000        6.89300
H          3.00100       10.13000        6.20700
H          2.00500        8.64400        6.34500
H          3.62700        8.63400        7.11200


