%chk=C10H24O2_pair_011_078.chk
%nproc=8
%mem=8000Mb
#p opt b3lyp/6-31G**

Conformer number 127. Energy MM = 0.000 kcal/mol

0 1
H         15.74100        9.60700       25.29400
C         16.74000        9.67100       24.77600
C         16.84900        8.56900       23.64800
H         16.90400       10.70700       24.27000
H         17.57500        9.62400       25.44800
H         16.48200        8.96500       22.69800
H         16.19000        7.76200       23.92400
C         18.18900        8.11500       23.42100
C         19.11500        9.16300       22.96000
H         18.54400        7.66500       24.39500
H         19.99400        8.73100       22.53100
H         19.36300        9.86000       23.79000
O         18.25600        7.02700       22.46700
H         17.95700        7.32300       21.62200
C         18.59300       10.00800       21.70400
H         17.48600       10.30500       21.70300
H         18.70500        9.32400       20.85700
H         19.24100       10.84400       21.43000
H         17.02100        4.41500       26.31000
C         17.49500        5.40600       26.32100
C         16.41200        6.53400       26.37300
H         18.21200        5.56500       27.14200
H         18.07600        5.40900       25.35900
H         15.62400        6.32500       25.57100
H         16.87000        7.52600       26.24300
C         15.58300        6.64100       27.61400
C         14.42800        7.50300       27.43800
H         15.19600        5.64200       27.80400
H         13.71000        6.99200       26.69400
H         14.72200        8.41900       26.98700
O         16.43400        6.90300       28.71800
H         16.00500        6.70300       29.53500
C         13.72700        7.88400       28.74300
H         12.98100        8.69500       28.60200
H         14.41500        8.19800       29.52900
H         13.20100        6.98000       29.06000


