%chk=C10H24O2_pair_009_022.chk
%nproc=8
%mem=8000Mb
#p opt b3lyp/6-31G**

Conformer number 101. Energy MM = 0.000 kcal/mol

0 1
H          4.86300       19.32500        8.21700
C          5.31200       20.22000        7.72500
C          4.22500       20.82300        6.82500
H          5.60500       20.89500        8.59000
H          6.20800       19.97400        7.08200
H          3.91100       20.20300        5.98300
H          4.53000       21.77100        6.34400
C          3.05600       21.08800        7.61900
C          1.92600       21.43900        6.73800
H          2.74200       20.21400        8.14600
H          1.58100       20.52900        6.18500
H          2.24000       22.28300        6.05200
O          3.39400       22.11600        8.48700
H          3.72900       21.68200        9.32800
C          0.68900       22.02600        7.48400
H         -0.23300       22.02600        6.83900
H          0.77000       23.06200        7.79500
H          0.60400       21.48700        8.41200
H          1.16200       18.19500        7.18500
C          1.71800       17.28200        7.16500
C          1.06300       16.13900        6.46900
H          2.62700       17.52500        6.51000
H          2.06900       17.00900        8.08500
H          0.69100       16.31200        5.39400
H          0.15600       15.82600        7.01600
C          1.80100       14.89700        6.50900
C          1.20200       13.79400        5.76800
H          2.79600       15.11000        6.10700
H          1.94400       12.96800        5.63200
H          0.97300       14.17700        4.79700
O          2.05500       14.58900        7.84300
H          1.16500       14.47600        8.23600
C         -0.04700       13.20300        6.36300
H         -0.49100       12.46200        5.58200
H         -0.74800       14.01300        6.60700
H          0.13800       12.67100        7.32000


