%chk=C10H24O2_pair_010_034.chk
%nproc=8
%mem=8000Mb
#p opt b3lyp/6-31G**

Conformer number 111. Energy MM = 0.000 kcal/mol

0 1
H          2.58800        3.91500       12.36700
C          3.48600        3.27800       12.62100
C          2.95500        1.81900       12.82900
H          4.20300        3.39200       11.73800
H          3.94300        3.60800       13.49500
H          2.19300        1.72700       13.58700
H          3.76800        1.24100       13.05400
C          2.23300        1.34400       11.65200
C          3.01600        1.19000       10.40400
H          1.81900        0.36000       11.96000
H          3.79800        0.38400       10.58700
H          3.57100        2.09700       10.18200
O          1.07900        2.17900       11.60000
H          0.47600        1.69300       10.96100
C          2.22500        0.72600        9.17300
H          1.40700        1.44700        8.92900
H          1.91900       -0.28600        9.25600
H          2.87400        0.63400        8.34300
H          3.80700        5.15600       10.25400
C          2.99500        4.96100        9.55200
C          3.53200        4.47500        8.20900
H          2.27300        4.19800       10.05900
H          2.45000        5.94100        9.36500
H          2.83000        4.43000        7.38600
H          3.91800        3.50000        8.39500
C          4.63200        5.28100        7.62200
C          5.31700        4.65500        6.48700
H          4.20400        6.23700        7.25100
H          4.54500        4.14400        5.86200
H          6.00600        3.86900        6.78800
O          5.61500        5.55700        8.59500
H          5.39800        6.48500        8.81400
C          6.02300        5.62100        5.52200
H          5.33500        6.38200        5.14100
H          6.51800        5.17300        4.65000
H          6.80700        6.07000        6.11900


