%chk=C10H24O2_pair_015_062.chk
%nproc=8
%mem=8000Mb
#p opt b3lyp/6-31G**

Conformer number 165. Energy MM = 0.000 kcal/mol

0 1
H         19.97000       10.36900       18.23100
C         20.01300       11.29400       17.64300
C         21.09900       12.18800       18.12300
H         20.34700       11.08000       16.60300
H         18.97400       11.62600       17.65800
H         22.15600       11.75400       18.10600
H         20.94700       12.47800       19.19700
C         21.21300       13.46300       17.45200
C         19.99600       14.24500       17.57700
H         22.07600       14.07400       17.82100
H         19.89200       14.44500       18.69000
H         19.10300       13.74900       17.23200
O         21.39500       13.24400       16.04700
H         22.21800       12.82100       16.10300
C         20.08700       15.59300       16.90200
H         19.20300       16.22500       17.03500
H         20.29700       15.46100       15.85900
H         20.82200       16.14900       17.35100
H         19.03600       19.39800       17.00600
C         19.34700       20.33400       17.52400
C         19.86200       20.01800       18.90100
H         19.97900       20.96200       16.87400
H         18.39100       20.90900       17.57700
H         19.08400       19.66800       19.61200
H         20.30400       20.89200       19.33300
C         20.85300       18.90500       18.87800
C         21.44200       18.41700       20.09800
H         20.23600       18.02400       18.46700
H         20.57200       18.09400       20.79200
H         21.91200       19.35400       20.55800
O         21.90600       19.34700       18.01900
H         21.75700       19.07700       17.13000
C         22.39500       17.18400       19.92200
H         22.88400       17.01300       20.90400
H         23.11000       17.35800       19.14000
H         21.73000       16.28900       19.64400


