%chk=C10H24O2_pair_024_050.chk
%nproc=8
%mem=8000Mb
#p opt b3lyp/6-31G**

Conformer number 253. Energy MM = 0.000 kcal/mol

0 1
H         12.98600       12.00000       18.39500
C         12.26400       11.52800       17.60400
C         11.25800       10.65000       18.23200
H         11.66100       12.35900       17.25300
H         12.76800       11.01800       16.74500
H         10.45800       10.38700       17.48800
H         10.77300       11.32000       18.93500
C         11.71600        9.44600       18.94400
C         10.63700        8.66800       19.43100
H         12.23500        8.73200       18.30300
H          9.97700        8.46600       18.52400
H         10.00000        9.19400       20.10100
O         12.79200        9.73100       19.85600
H         12.37900       10.24700       20.61400
C         11.04900        7.36200       20.01500
H         10.24100        6.69800       20.27800
H         11.68700        7.63100       20.90200
H         11.62900        6.79500       19.31000
H         14.20200       13.56400       13.91700
C         14.13800       13.81000       14.98300
C         12.81000       14.60300       15.18900
H         14.18200       12.87100       15.50300
H         15.03400       14.39900       15.26200
H         12.01200       13.83400       15.05700
H         12.68900       15.36200       14.39600
C         12.63000       15.05400       16.49700
C         11.26700       15.34200       16.89200
H         12.92800       14.25300       17.17800
H         10.55800       14.56200       16.44200
H         11.03300       16.32800       16.46400
O         13.47400       16.16900       16.71100
H         14.35600       15.77200       16.60200
C         11.22800       15.44000       18.39000
H         10.31000       15.92900       18.77100
H         11.94300       16.19900       18.75900
H         11.39400       14.46600       18.85900


