%chk=C10H24O2_pair_052_091.chk
%nproc=8
%mem=8000Mb
#p opt b3lyp/6-31G**

Conformer number 467. Energy MM = 0.000 kcal/mol

0 1
H          5.38300       16.75900       22.63500
C          4.75700       17.38200       23.31000
C          3.40000       17.82000       22.77900
H          4.59200       16.68600       24.17700
H          5.35300       18.23900       23.65400
H          2.94900       17.13300       22.06600
H          3.43700       18.71500       22.23700
C          2.44800       18.23000       23.87900
C          1.06800       18.22900       23.52100
H          2.55200       17.57200       24.73500
H          0.51900       18.59900       24.41100
H          0.73600       17.18100       23.44100
O          2.85400       19.52900       24.36300
H          2.24400       19.66600       25.07700
C          0.51700       18.94400       22.25600
H          0.79600       20.07000       22.34500
H         -0.62300       18.68500       22.18700
H          1.04500       18.63400       21.29700
H         -2.40900       23.50000       21.18600
C         -2.16500       22.47800       20.83700
C         -0.67500       22.45800       20.30600
H         -2.36600       21.72000       21.60000
H         -2.92800       22.42700       19.98900
H         -0.13500       22.39400       21.26900
H         -0.44300       23.44000       19.80300
C         -0.32300       21.36000       19.39800
C          1.05100       21.12400       18.98800
H         -0.61700       20.46800       19.97800
H          1.78800       21.07900       19.91000
H          1.32600       22.02800       18.40900
O         -1.10700       21.47000       18.20500
H         -1.74700       20.74600       18.04700
C          1.05200       19.80000       18.24000
H          0.65900       19.01500       18.97400
H          2.05400       19.48100       17.90700
H          0.41400       19.81700       17.31400


