%chk=C10H24O2_pair_014_054.chk
%nproc=8
%mem=8000Mb
#p opt b3lyp/6-31G**

Conformer number 154. Energy MM = 0.000 kcal/mol

0 1
H         18.47000       25.28300       21.85000
C         19.05300       24.53700       22.41800
C         18.38700       23.12200       22.56300
H         20.06100       24.49800       21.90800
H         19.22400       25.02000       23.39600
H         18.19200       22.59700       21.60700
H         17.43700       23.31300       23.10700
C         19.15500       22.28400       23.49600
C         18.75000       20.88300       23.65600
H         20.19100       22.39300       23.26200
H         17.63400       20.79400       23.71800
H         19.17800       20.47600       24.68000
O         18.96500       22.88600       24.81300
H         19.30200       23.74400       24.67400
C         19.21600       20.06400       22.46500
H         20.27900       19.93500       22.51100
H         19.04000       20.68500       21.57800
H         18.70300       19.13100       22.35900
H         22.93300       30.09300       22.16200
C         22.98900       29.01200       22.37700
C         21.69700       28.42000       21.76900
H         23.87800       28.74900       21.84800
H         23.12300       28.90400       23.48900
H         21.76600       27.37700       22.03500
H         21.78900       28.46500       20.63200
C         20.48900       29.12600       22.19300
C         19.24300       28.47300       21.81300
H         20.49300       29.25400       23.38800
H         18.36400       28.98500       22.22100
H         19.13200       27.51300       22.32700
O         20.43200       30.47000       21.65700
H         19.60900       30.87700       21.97900
C         19.02900       28.27800       20.22200
H         18.68900       29.19800       19.69400
H         18.16800       27.51000       20.06000
H         19.93400       27.92300       19.72000


