%chk=C10H24O2_pair_051_082.chk
%nproc=8
%mem=8000Mb
#p opt b3lyp/6-31G**

Conformer number 459. Energy MM = 0.000 kcal/mol

0 1
H         22.09300       20.56200       -1.02000
C         22.78300       20.69300       -0.18600
C         22.08300       20.98500        1.15400
H         23.24200       19.71700       -0.14800
H         23.60600       21.44400       -0.46100
H         21.33500       20.22000        1.32600
H         21.59900       21.95000        1.19400
C         22.95600       21.05600        2.40700
C         24.00600       22.07800        2.33000
H         22.37100       21.47100        3.28200
H         23.48200       23.02900        2.18300
H         24.82000       21.92000        1.58700
O         23.51800       19.80500        2.82400
H         22.80500       19.20700        2.90400
C         24.75600       22.20900        3.73100
H         25.34700       23.13900        3.75900
H         25.45900       21.32800        3.93500
H         24.09600       22.47200        4.59000
H         25.93000       29.04800       -1.24300
C         25.76700       28.75500       -0.18300
C         26.74800       27.56700        0.08800
H         25.90600       29.49100        0.58200
H         24.76400       28.37000       -0.21200
H         27.80900       27.89900        0.09700
H         26.62600       26.74500       -0.65000
C         26.69900       27.03600        1.48500
C         27.40800       25.74000        1.43000
H         27.24700       27.69300        2.15400
H         28.48200       25.79700        1.08600
H         26.91500       25.06100        0.70700
O         25.39300       26.86300        2.10000
H         25.14600       25.98100        1.96400
C         27.35500       24.89300        2.74900
H         26.29700       24.60000        3.01600
H         27.89900       25.39300        3.61100
H         27.82100       23.86200        2.49100


