%chk=C10H24O2_pair_012_085.chk
%nproc=8
%mem=8000Mb
#p opt b3lyp/6-31G**

Conformer number 137. Energy MM = 0.000 kcal/mol

0 1
H         16.19600       15.39300        1.80300
C         16.69700       15.55200        2.75800
C         17.45200       14.35400        3.30500
H         17.45100       16.37400        2.60000
H         15.96800       15.91200        3.47300
H         16.75400       13.77600        3.85200
H         18.21700       14.63500        4.06500
C         18.09900       13.51200        2.24300
C         19.06500       12.54500        2.70900
H         17.31900       12.90400        1.76600
H         18.52100       11.77800        3.24100
H         19.73900       12.96200        3.42600
O         18.75800       14.38700        1.26200
H         18.14600       14.53800        0.52400
C         19.82400       11.83200        1.61600
H         20.69700       11.51300        2.20100
H         20.29300       12.53400        0.85600
H         19.39400       10.93600        1.19200
H         18.01800       15.73400        5.93300
C         18.51600       16.47900        6.62200
C         17.86100       16.73700        8.03000
H         19.58700       16.41300        6.82100
H         18.30600       17.43100        6.01700
H         17.81000       15.82700        8.68200
H         16.80800       16.85300        7.65500
C         18.34400       17.92700        8.70600
C         17.81800       18.17400       10.01100
H         19.42400       17.71700        8.90500
H         18.31200       19.01500       10.57900
H         18.06700       17.30600       10.64800
O         18.15500       19.01200        7.89700
H         18.94600       19.22700        7.43200
C         16.29900       18.20500       10.04900
H         15.87400       18.86800        9.23200
H         15.95200       18.68300       11.05900
H         15.85900       17.25500        9.93800


