%chk=C10H24O2_pair_023_099.chk
%nproc=8
%mem=8000Mb
#p opt b3lyp/6-31G**

Conformer number 247. Energy MM = 0.000 kcal/mol

0 1
H         23.12400       16.70800       16.55100
C         23.73700       16.97000       15.66200
C         23.58600       18.37600       15.11100
H         24.78300       16.72900       15.93400
H         23.46100       16.19000       14.89900
H         24.24700       18.54000       14.30400
H         23.74600       19.14700       15.94400
C         22.29300       18.67900       14.57200
C         22.30600       19.92300       13.86100
H         21.93700       17.92500       13.80000
H         23.16300       20.02100       13.24300
H         22.47500       20.71300       14.56800
O         21.22000       18.63900       15.51300
H         20.39000       18.87000       15.09300
C         21.10500       20.22500       12.99100
H         20.14500       20.03800       13.64800
H         21.03200       19.59400       12.08900
H         21.10100       21.35700       12.73600
H         18.31900       21.04400       10.92000
C         18.76100       21.96300       11.23800
C         18.11800       22.18500       12.62200
H         19.82400       22.00600       11.18200
H         18.32900       22.82200       10.56600
H         18.71300       21.68600       13.38800
H         17.18200       21.61600       12.68400
C         17.81500       23.58700       12.94100
C         17.54200       23.76500       14.37000
H         18.77100       24.09100       12.67700
H         18.27500       23.24600       14.94300
H         16.53000       23.32200       14.47100
O         16.72900       24.01700       12.12600
H         16.76000       24.96700       12.07600
C         17.52100       25.17400       14.82600
H         16.88300       25.82500       14.23100
H         18.50100       25.63400       14.84700
H         17.14900       25.20800       15.89800


