%chk=C10H24O2_pair_049_071.chk
%nproc=8
%mem=8000Mb
#p opt b3lyp/6-31G**

Conformer number 449. Energy MM = 0.000 kcal/mol

0 1
H         10.70100        7.49500       13.79900
C         11.02400        7.88900       12.81800
C         12.41500        8.62600       12.93300
H         11.05900        7.15500       12.02400
H         10.28100        8.69300       12.52500
H         12.56400        9.13200       11.96200
H         13.27600        7.95800       12.97900
C         12.42600        9.66400       13.98800
C         13.74400       10.33400       14.15600
H         11.69200       10.45800       13.81100
H         13.53400       11.10700       14.91700
H         14.02200       10.79900       13.20600
O         12.04100        9.01100       15.16700
H         12.77100        8.40700       15.29300
C         14.91700        9.50900       14.64600
H         15.15300        8.83400       13.81200
H         14.75500        8.91800       15.55500
H         15.73500       10.18100       14.87700
H          2.20300        7.36400       12.83200
C          2.89400        7.21000       11.92200
C          4.22900        8.08400       11.92200
H          3.08500        6.08800       11.99900
H          2.27200        7.45600       10.94900
H          4.76600        7.93900       12.86200
H          3.94800        9.12500       12.05600
C          5.23600        7.82300       10.88600
C          6.34500        8.73000       11.03400
H          5.60800        6.76500       11.11100
H          6.45800        8.86900       12.08800
H          6.13400        9.70100       10.72600
O          4.71400        7.73300        9.57000
H          4.28900        8.60300        9.41100
C          7.58800        8.21700       10.28000
H          7.38900        8.28600        9.20400
H          7.98600        7.20300       10.55500
H          8.34800        9.02100       10.51400


