%chk=C10H24O2_pair_023_091.chk
%nproc=8
%mem=8000Mb
#p opt b3lyp/6-31G**

Conformer number 245. Energy MM = 0.000 kcal/mol

0 1
H         23.12400       16.70800       16.55100
C         23.73700       16.97000       15.66200
C         23.58600       18.37600       15.11100
H         24.78300       16.72900       15.93400
H         23.46100       16.19000       14.89900
H         24.24700       18.54000       14.30400
H         23.74600       19.14700       15.94400
C         22.29300       18.67900       14.57200
C         22.30600       19.92300       13.86100
H         21.93700       17.92500       13.80000
H         23.16300       20.02100       13.24300
H         22.47500       20.71300       14.56800
O         21.22000       18.63900       15.51300
H         20.39000       18.87000       15.09300
C         21.10500       20.22500       12.99100
H         20.14500       20.03800       13.64800
H         21.03200       19.59400       12.08900
H         21.10100       21.35700       12.73600
H         22.05300       23.50000       21.18600
C         22.29700       22.47800       20.83700
C         23.78700       22.45800       20.30600
H         22.09600       21.72000       21.60000
H         21.53400       22.42700       19.98900
H         24.32700       22.39400       21.26900
H         24.01900       23.44000       19.80300
C         24.13900       21.36000       19.39800
C         25.51300       21.12400       18.98800
H         23.84500       20.46800       19.97800
H         26.25000       21.07900       19.91000
H         25.78800       22.02800       18.40900
O         23.35500       21.47000       18.20500
H         22.71500       20.74600       18.04700
C         25.51400       19.80000       18.24000
H         25.12100       19.01500       18.97400
H         26.51600       19.48100       17.90700
H         24.87600       19.81700       17.31400


