%chk=C10H24O2_pair_039_099.chk
%nproc=8
%mem=8000Mb
#p opt b3lyp/6-31G**

Conformer number 385. Energy MM = 0.000 kcal/mol

0 1
H         14.27000       24.12400        8.90300
C         14.36600       23.19800        8.37400
C         15.16600       22.11400        9.13900
H         13.35300       22.92100        8.17600
H         14.79100       23.55600        7.41900
H         16.17600       22.56000        9.38200
H         15.31200       21.27600        8.48000
C         14.56800       21.68900       10.40700
C         13.19900       21.21700       10.10800
H         15.10200       20.83500       10.75800
H         13.19900       20.63800        9.13700
H         12.52500       22.08900        9.97100
O         14.43300       22.63300       11.51200
H         15.30100       23.04800       11.62600
C         12.55500       20.46500       11.25300
H         11.66700       19.77600       11.03200
H         12.26000       21.05200       12.17800
H         13.21700       19.73000       11.67300
H         18.31900       21.04400       10.92000
C         18.76100       21.96300       11.23800
C         18.11800       22.18500       12.62200
H         19.82400       22.00600       11.18200
H         18.32900       22.82200       10.56600
H         18.71300       21.68600       13.38800
H         17.18200       21.61600       12.68400
C         17.81500       23.58700       12.94100
C         17.54200       23.76500       14.37000
H         18.77100       24.09100       12.67700
H         18.27500       23.24600       14.94300
H         16.53000       23.32200       14.47100
O         16.72900       24.01700       12.12600
H         16.76000       24.96700       12.07600
C         17.52100       25.17400       14.82600
H         16.88300       25.82500       14.23100
H         18.50100       25.63400       14.84700
H         17.14900       25.20800       15.89800


