%chk=C10H24O2_pair_030_063.chk
%nproc=8
%mem=8000Mb
#p opt b3lyp/6-31G**

Conformer number 310. Energy MM = 0.000 kcal/mol

0 1
H         12.95100       17.70300       10.47600
C         12.27500       17.34500        9.70700
C         10.94000       16.79900       10.15700
H         12.01400       18.13200        8.95800
H         12.72600       16.60900        9.07400
H         10.45300       16.57900        9.22800
H         10.29700       17.57300       10.63800
C         10.82200       15.63300       10.97200
C         11.39000       15.76900       12.29500
H          9.77100       15.46700       11.16300
H         12.51500       15.67000       12.17500
H         11.10500       14.87700       12.89500
O         11.38300       14.47700       10.31400
H         11.14300       13.74400       10.86300
C         11.17800       17.08800       13.05200
H         10.15200       17.39300       13.12100
H         11.64600       17.97900       12.59800
H         11.46000       16.92100       14.13700
H          8.52200       20.71600        3.22600
C          7.82400       21.19600        3.87300
C          8.25900       21.19200        5.34100
H          7.70500       22.22800        3.51900
H          6.90300       20.61500        3.73100
H          7.39400       21.63800        5.86100
H          9.03200       21.94400        5.48100
C          8.67500       19.93100        5.86800
C          9.23200       20.07000        7.21000
H          7.83400       19.34300        6.06100
H          8.40200       20.41800        7.83700
H         10.05100       20.87400        7.24300
O          9.55300       19.25600        5.02400
H         10.46400       19.37900        5.33100
C          9.84900       18.89200        7.94100
H         10.22200       19.17900        8.91800
H         10.68700       18.34300        7.34900
H          9.08700       18.09500        8.12600


