%chk=C10H24O2_pair_055_075.chk
%nproc=8
%mem=8000Mb
#p opt b3lyp/6-31G**

Conformer number 482. Energy MM = 0.000 kcal/mol

0 1
H          3.02300       17.04200       15.56300
C          3.19300       17.73500       14.67900
C          2.88400       19.22200       15.16500
H          4.20800       17.65100       14.40200
H          2.62700       17.47800       13.75400
H          1.95000       19.42900       15.65800
H          2.78100       19.77300       14.21400
C          3.98200       19.79400       16.00800
C          3.78600       21.24000       16.21100
H          4.00100       19.16300       16.90500
H          2.75100       21.53500       16.53800
H          3.81900       21.70500       15.17700
O          5.23600       19.67400       15.34000
H          5.92600       19.51200       15.97700
C          4.80700       21.98600       17.08200
H          4.71700       21.84500       18.18800
H          4.68000       23.06800       16.94400
H          5.85500       21.61800       16.88700
H          0.65600       23.14800       13.12200
C          1.00100       22.09400       12.81500
C          2.45900       22.06600       12.34900
H          0.81000       21.45600       13.73500
H          0.27200       21.81100       12.07000
H          3.08900       21.63500       13.17700
H          2.91400       23.06800       12.18800
C          2.66700       21.17700       11.16900
C          2.21100       19.79100       11.35100
H          2.08000       21.63700       10.39100
H          1.19800       19.68200       11.69500
H          2.88100       19.38800       12.18000
O          4.02800       21.12700       10.87300
H          4.46900       20.80400       11.69600
C          2.25900       18.75000       10.15600
H          2.00900       17.76700       10.69500
H          3.21200       18.86200        9.62600
H          1.50800       18.83600        9.36400


