%chk=C10H24O2_pair_005_033.chk
%nproc=8
%mem=8000Mb
#p opt b3lyp/6-31G**

Conformer number 057. Energy MM = 0.000 kcal/mol

0 1
H          9.12300        0.49700       17.08600
C          9.66800        0.95400       16.26200
C         10.71100        1.95000       16.69600
H         10.15500        0.10600       15.69400
H          8.92300        1.29300       15.51100
H         11.29800        2.32100       15.83600
H         11.25900        1.46800       17.46000
C         10.11800        3.14100       17.20000
C         11.09500        4.18600       17.32100
H          9.41000        3.50200       16.40000
H         11.81900        4.21200       16.50800
H         11.66900        4.02300       18.24200
O          9.48200        3.05100       18.46600
H          8.54500        2.82600       18.32500
C         10.45600        5.61300       17.42300
H          9.86100        5.69000       18.32700
H          9.84200        5.87500       16.57400
H         11.29800        6.39300       17.37900
H         14.06500        2.54300        9.94500
C         13.09600        2.48300        9.50300
C         12.06700        3.32400       10.10500
H         13.23200        2.72000        8.45400
H         12.75200        1.43400        9.52400
H         11.14600        3.11500        9.58300
H         12.34100        4.37200        9.91600
C         11.87500        3.13700       11.52900
C         11.40200        4.43500       12.08700
H         11.07600        2.39100       11.78000
H         10.78700        4.99100       11.41900
H         12.33900        4.91500       12.20600
O         13.14900        2.76100       12.21000
H         13.09700        1.74800       12.29100
C         10.76300        4.10600       13.43100
H          9.83500        3.58800       13.28900
H         10.56500        4.84400       14.20400
H         11.31800        3.33100       13.95100


