%chk=C10H24O2_pair_009_051.chk
%nproc=8
%mem=8000Mb
#p opt b3lyp/6-31G**

Conformer number 103. Energy MM = 0.000 kcal/mol

0 1
H          4.86300       19.32500        8.21700
C          5.31200       20.22000        7.72500
C          4.22500       20.82300        6.82500
H          5.60500       20.89500        8.59000
H          6.20800       19.97400        7.08200
H          3.91100       20.20300        5.98300
H          4.53000       21.77100        6.34400
C          3.05600       21.08800        7.61900
C          1.92600       21.43900        6.73800
H          2.74200       20.21400        8.14600
H          1.58100       20.52900        6.18500
H          2.24000       22.28300        6.05200
O          3.39400       22.11600        8.48700
H          3.72900       21.68200        9.32800
C          0.68900       22.02600        7.48400
H         -0.23300       22.02600        6.83900
H          0.77000       23.06200        7.79500
H          0.60400       21.48700        8.41200
H         -2.36900       20.56200       -1.02000
C         -1.67900       20.69300       -0.18600
C         -2.37900       20.98500        1.15400
H         -1.22000       19.71700       -0.14800
H         -0.85600       21.44400       -0.46100
H         -3.12700       20.22000        1.32600
H         -2.86300       21.95000        1.19400
C         -1.50600       21.05600        2.40700
C         -0.45600       22.07800        2.33000
H         -2.09100       21.47100        3.28200
H         -0.98000       23.02900        2.18300
H          0.35800       21.92000        1.58700
O         -0.94400       19.80500        2.82400
H         -1.65700       19.20700        2.90400
C          0.29400       22.20900        3.73100
H          0.88500       23.13900        3.75900
H          0.99700       21.32800        3.93500
H         -0.36600       22.47200        4.59000


