%chk=C10H24O2_pair_024_088.chk
%nproc=8
%mem=8000Mb
#p opt b3lyp/6-31G**

Conformer number 255. Energy MM = 0.000 kcal/mol

0 1
H         12.98600       12.00000       18.39500
C         12.26400       11.52800       17.60400
C         11.25800       10.65000       18.23200
H         11.66100       12.35900       17.25300
H         12.76800       11.01800       16.74500
H         10.45800       10.38700       17.48800
H         10.77300       11.32000       18.93500
C         11.71600        9.44600       18.94400
C         10.63700        8.66800       19.43100
H         12.23500        8.73200       18.30300
H          9.97700        8.46600       18.52400
H         10.00000        9.19400       20.10100
O         12.79200        9.73100       19.85600
H         12.37900       10.24700       20.61400
C         11.04900        7.36200       20.01500
H         10.24100        6.69800       20.27800
H         11.68700        7.63100       20.90200
H         11.62900        6.79500       19.31000
H          3.19100       10.15600       20.56400
C          3.51100        9.62500       19.63100
C          4.69000        8.71200       19.88700
H          2.60100        9.09200       19.44400
H          3.76400       10.35500       18.83800
H          4.42800        7.92400       20.60600
H          5.51300        9.29500       20.34600
C          5.13900        7.91700       18.73700
C          6.00500        6.78800       19.20400
H          4.17700        7.49100       18.37200
H          5.39000        5.89700       19.51700
H          6.57300        7.05000       20.19000
O          5.60400        8.73800       17.65300
H          6.02800        8.10800       17.06600
C          7.10600        6.29300       18.23900
H          7.62900        5.37600       18.59900
H          7.85200        7.05300       18.15500
H          6.66400        5.97100       17.31300


