%chk=C10H24O2_pair_048_085.chk
%nproc=8
%mem=8000Mb
#p opt b3lyp/6-31G**

Conformer number 445. Energy MM = 0.000 kcal/mol

0 1
H         10.14800       14.18900        6.18100
C         10.74600       14.61500        6.96700
C         11.64900       15.63500        6.39000
H         10.05800       14.99100        7.75400
H         11.27300       13.75500        7.47700
H         12.09400       16.22000        7.18900
H         10.91300       16.26200        5.80100
C         12.71800       15.19900        5.46600
C         13.71400       14.27800        5.97100
H         12.03800       14.61900        4.81800
H         14.18000       13.83100        5.10000
H         13.20600       13.38900        6.52300
O         13.16900       16.33700        4.78700
H         13.00900       16.16800        3.82600
C         14.83500       14.97200        6.74100
H         15.48800       15.53700        5.99500
H         15.44200       14.24200        7.22600
H         14.52700       15.61000        7.55100
H         18.01800       15.73400        5.93300
C         18.51600       16.47900        6.62200
C         17.86100       16.73700        8.03000
H         19.58700       16.41300        6.82100
H         18.30600       17.43100        6.01700
H         17.81000       15.82700        8.68200
H         16.80800       16.85300        7.65500
C         18.34400       17.92700        8.70600
C         17.81800       18.17400       10.01100
H         19.42400       17.71700        8.90500
H         18.31200       19.01500       10.57900
H         18.06700       17.30600       10.64800
O         18.15500       19.01200        7.89700
H         18.94600       19.22700        7.43200
C         16.29900       18.20500       10.04900
H         15.87400       18.86800        9.23200
H         15.95200       18.68300       11.05900
H         15.85900       17.25500        9.93800


