%chk=C10H24O2_pair_029_095.chk
%nproc=8
%mem=8000Mb
#p opt b3lyp/6-31G**

Conformer number 304. Energy MM = 0.000 kcal/mol

0 1
H         12.65800       25.72400       24.33000
C         11.82400       25.12900       24.76000
C         12.25300       23.68300       24.84300
H         11.59000       25.47900       25.73500
H         10.95200       25.36700       24.16100
H         11.54300       23.07100       25.37400
H         13.19800       23.66300       25.43300
C         12.58500       23.11800       23.49900
C         12.91700       21.70100       23.56000
H         11.75700       23.47500       22.77500
H         13.05500       21.31200       22.51500
H         12.05500       21.10400       23.85700
O         13.71400       23.69700       22.91300
H         13.89500       23.12000       22.15800
C         14.17400       21.25000       24.38900
H         13.98600       21.07100       25.41000
H         14.96200       22.06000       24.44800
H         14.64100       20.42000       23.81900
H         12.19600       16.87700       21.16300
C         12.44500       17.92000       21.52300
C         11.39400       18.94000       21.04000
H         12.69100       17.88700       22.67400
H         13.40700       18.00000       21.00400
H         11.26200       18.89900       19.94200
H         11.84700       19.95300       21.04800
C         10.09600       18.82200       21.65300
C          9.53400       17.47500       21.76000
H         10.14900       19.27100       22.76500
H         10.13500       16.71800       22.36400
H          9.38800       17.07600       20.71500
O          9.22000       19.65200       20.90600
H          8.74100       20.12800       21.59200
C          8.13500       17.46000       22.37200
H          7.83000       16.43300       22.37000
H          7.48700       18.05800       21.76300
H          8.19400       17.83700       23.38900


