%chk=C10H24O2_pair_057_084.chk
%nproc=8
%mem=8000Mb
#p opt b3lyp/6-31G**

Conformer number 491. Energy MM = 0.000 kcal/mol

0 1
H         21.83300       15.23000       -2.06400
C         21.70900       15.92100       -1.15000
C         22.12600       15.16400        0.16600
H         22.33500       16.82900       -1.34300
H         20.64600       16.36500       -1.09700
H         23.19500       14.92900        0.07600
H         21.54700       14.21000        0.18900
C         21.92900       15.82000        1.50700
C         22.27900       14.91600        2.65400
H         22.39800       16.83700        1.62100
H         23.39700       14.87500        2.82500
H         21.91500       13.86700        2.49900
O         20.54800       16.12700        1.51700
H         20.06300       15.29800        1.45400
C         21.66700       15.25000        4.05700
H         22.00800       16.28400        4.38900
H         22.07600       14.41800        4.68000
H         20.58300       15.08900        3.95800
H         18.16300       13.78300       -4.27700
C         18.57900       13.52200       -3.32300
C         18.70500       14.75900       -2.39300
H         18.02800       12.60900       -3.03300
H         19.59300       13.17700       -3.61000
H         19.23500       15.46900       -3.04500
H         19.46300       14.52300       -1.68400
C         17.57600       15.39500       -1.79100
C         18.01900       16.69800       -1.29700
H         16.81200       15.57400       -2.53500
H         18.57400       17.26900       -1.95100
H         18.73100       16.56200       -0.42700
O         17.11200       14.66900       -0.70700
H         16.17100       14.59000       -0.77800
C         16.95500       17.64400       -0.73300
H         16.53400       17.17100        0.19200
H         16.23700       17.75700       -1.50000
H         17.23100       18.64300       -0.36100


