%chk=C10H24O2_pair_002_008.chk
%nproc=8
%mem=8000Mb
#p opt b3lyp/6-31G**

Conformer number 024. Energy MM = 0.000 kcal/mol

0 1
H         22.43700       20.29800       10.86400
C         22.75800       20.08000        9.82200
C         21.79600       20.58700        8.74700
H         23.79600       20.42400        9.67500
H         22.74100       18.94300        9.83700
H         21.93800       21.61100        8.44500
H         20.80700       20.47200        9.17600
C         21.77300       19.71800        7.56400
C         22.97900       19.84100        6.81400
H         21.74000       18.69200        7.88300
H         23.92500       19.82300        7.46100
H         22.86700       20.68300        6.10100
O         20.60400       19.77900        6.67500
H         20.68100       20.54200        6.10600
C         23.26900       18.67300        5.80400
H         22.46100       18.66200        5.04000
H         23.19800       17.72100        6.32600
H         24.30200       18.87100        5.38000
H         19.48700       26.27000        8.37300
C         20.53800       26.54600        8.45600
C         21.30900       25.37700        8.96700
H         20.88900       26.94800        7.42000
H         20.63200       27.43100        9.09100
H         21.32100       24.64800        8.13800
H         20.81400       24.91600        9.79300
C         22.65800       25.75500        9.29900
C         23.46200       24.52500        9.48500
H         23.09400       26.31600        8.40400
H         24.44000       24.83400        9.83600
H         23.59000       24.10200        8.45700
O         22.77400       26.54300       10.44800
H         22.39900       27.40300       10.19400
C         22.90500       23.58600       10.43300
H         23.73800       22.91100       10.67700
H         22.03800       23.03500        9.96700
H         22.70500       24.04000       11.38000


