%chk=C10H24O2_pair_017_021.chk
%nproc=8
%mem=8000Mb
#p opt b3lyp/6-31G**

Conformer number 182. Energy MM = 0.000 kcal/mol

0 1
H          1.03700        5.13500       20.68900
C          1.37400        4.46800       19.81300
C          2.03100        5.29700       18.76000
H          2.01800        3.71300       20.23600
H          0.40800        3.94700       19.47300
H          2.77900        5.79600       19.33400
H          1.29200        6.02700       18.42200
C          2.55600        4.51900       17.61300
C          3.18900        5.26100       16.53600
H          3.34000        3.91200       17.99500
H          3.28700        4.57100       15.66200
H          4.17000        5.60600       16.76600
O          1.46600        3.72400       17.01800
H          1.42100        2.93500       17.49600
C          2.43100        6.45400       15.98200
H          2.38400        7.43800       16.44900
H          1.35500        6.09200       16.00300
H          2.78600        6.61100       14.97100
H          0.57600        3.06400       14.60200
C         -0.42200        2.94400       14.35300
C         -1.04400        4.29600       14.16800
H         -0.51400        2.29900       13.46900
H         -0.92000        2.29000       15.15400
H         -1.01000        4.78600       15.13600
H         -2.16000        4.19200       13.81100
C         -0.30300        5.14700       13.23500
C         -0.93600        6.48400       13.08600
H          0.68900        5.32800       13.61100
H         -2.03200        6.29300       12.80900
H         -0.51800        6.96700       12.15300
O         -0.35700        4.53600       11.91400
H          0.13300        3.73900       11.88400
C         -0.87900        7.37300       14.35900
H          0.16100        7.59400       14.51700
H         -1.33300        6.88700       15.22600
H         -1.36500        8.33900       14.14500


