%chk=C10H24O2_pair_055_059.chk
%nproc=8
%mem=8000Mb
#p opt b3lyp/6-31G**

Conformer number 477. Energy MM = 0.000 kcal/mol

0 1
H          3.02300       17.04200       15.56300
C          3.19300       17.73500       14.67900
C          2.88400       19.22200       15.16500
H          4.20800       17.65100       14.40200
H          2.62700       17.47800       13.75400
H          1.95000       19.42900       15.65800
H          2.78100       19.77300       14.21400
C          3.98200       19.79400       16.00800
C          3.78600       21.24000       16.21100
H          4.00100       19.16300       16.90500
H          2.75100       21.53500       16.53800
H          3.81900       21.70500       15.17700
O          5.23600       19.67400       15.34000
H          5.92600       19.51200       15.97700
C          4.80700       21.98600       17.08200
H          4.71700       21.84500       18.18800
H          4.68000       23.06800       16.94400
H          5.85500       21.61800       16.88700
H          6.07100       19.73600       21.29400
C          5.48200       20.32900       20.54900
C          5.11400       21.74500       21.13900
H          6.13100       20.53600       19.67000
H          4.58800       19.74500       20.12800
H          4.72500       22.48200       20.37600
H          5.94300       22.19700       21.60500
C          4.23200       21.46900       22.26800
C          3.44700       22.67800       22.58100
H          3.37200       20.84200       21.82200
H          2.80900       23.02400       21.67400
H          4.15100       23.50700       22.72300
O          4.91300       20.90000       23.37000
H          4.20100       20.43800       23.90700
C          2.39200       22.42000       23.66800
H          1.73000       21.59100       23.32300
H          2.00900       23.39400       23.96100
H          2.95100       22.15600       24.65700


