%chk=C10H24O2_pair_051_086.chk
%nproc=8
%mem=8000Mb
#p opt b3lyp/6-31G**

Conformer number 460. Energy MM = 0.000 kcal/mol

0 1
H         22.09300       20.56200       -1.02000
C         22.78300       20.69300       -0.18600
C         22.08300       20.98500        1.15400
H         23.24200       19.71700       -0.14800
H         23.60600       21.44400       -0.46100
H         21.33500       20.22000        1.32600
H         21.59900       21.95000        1.19400
C         22.95600       21.05600        2.40700
C         24.00600       22.07800        2.33000
H         22.37100       21.47100        3.28200
H         23.48200       23.02900        2.18300
H         24.82000       21.92000        1.58700
O         23.51800       19.80500        2.82400
H         22.80500       19.20700        2.90400
C         24.75600       22.20900        3.73100
H         25.34700       23.13900        3.75900
H         25.45900       21.32800        3.93500
H         24.09600       22.47200        4.59000
H         20.12700       19.53800        3.39400
C         19.21900       18.86500        3.52200
C         17.96000       19.37300        2.73200
H         19.68300       18.00000        3.12500
H         19.12700       18.64600        4.55300
H         17.02800       18.77800        2.89800
H         18.22600       19.25400        1.66600
C         17.68900       20.75600        2.95100
C         16.57400       21.25400        2.22300
H         17.39400       20.90200        3.99100
H         15.65900       20.77600        2.56600
H         16.66700       21.15500        1.11500
O         18.88300       21.54900        2.73200
H         18.94700       21.59300        1.73600
C         16.43900       22.72500        2.61000
H         17.26100       23.36700        2.24800
H         16.32500       22.87600        3.73300
H         15.57200       23.28000        2.16800


