%chk=C10H24O2_pair_054_082.chk
%nproc=8
%mem=8000Mb
#p opt b3lyp/6-31G**

Conformer number 475. Energy MM = 0.000 kcal/mol

0 1
H         22.93300        5.63100       22.16200
C         22.98900        4.55000       22.37700
C         21.69700        3.95800       21.76900
H         23.87800        4.28700       21.84800
H         23.12300        4.44200       23.48900
H         21.76600        2.91500       22.03500
H         21.78900        4.00300       20.63200
C         20.48900        4.66400       22.19300
C         19.24300        4.01100       21.81300
H         20.49300        4.79200       23.38800
H         18.36400        4.52300       22.22100
H         19.13200        3.05100       22.32700
O         20.43200        6.00800       21.65700
H         19.60900        6.41500       21.97900
C         19.02900        3.81600       20.22200
H         18.68900        4.73600       19.69400
H         18.16800        3.04800       20.06000
H         19.93400        3.46100       19.72000
H         25.93000        4.58600       23.21900
C         25.76700        4.29300       24.27900
C         26.74800        3.10500       24.55000
H         25.90600        5.02900       25.04400
H         24.76400        3.90800       24.25000
H         27.80900        3.43700       24.55900
H         26.62600        2.28300       23.81200
C         26.69900        2.57400       25.94700
C         27.40800        1.27800       25.89200
H         27.24700        3.23100       26.61600
H         28.48200        1.33500       25.54800
H         26.91500        0.59900       25.16900
O         25.39300        2.40100       26.56200
H         25.14600        1.51900       26.42600
C         27.35500        0.43100       27.21100
H         26.29700        0.13800       27.47800
H         27.89900        0.93100       28.07300
H         27.82100       -0.60000       26.95300


