%chk=C10H24O2_pair_026_072.chk
%nproc=8
%mem=8000Mb
#p opt b3lyp/6-31G**

Conformer number 274. Energy MM = 0.000 kcal/mol

0 1
H          6.34900       22.80300       26.44900
C          6.75100       22.74700       25.43600
C          8.11000       22.05000       25.35800
H          6.14200       22.24300       24.76600
H          6.93800       23.80100       25.03600
H          8.03100       21.07800       25.85500
H          8.79100       22.63300       25.98300
C          8.63600       21.78400       24.03100
C          8.80000       22.97800       23.28200
H          9.65100       21.23700       24.07200
H          9.60600       23.54400       23.78100
H          7.93500       23.59100       23.27800
O          7.75600       20.94200       23.19100
H          6.84900       20.87700       23.51400
C          9.31900       22.75100       21.84400
H         10.21200       22.13900       21.79300
H          9.53900       23.73000       21.35800
H          8.50800       22.27500       21.24200
H          5.85600       28.06600       28.07300
C          5.97600       27.51600       27.13500
C          6.50000       26.11500       27.49500
H          5.07800       27.50300       26.56800
H          6.75900       28.03600       26.55200
H          6.49300       25.44900       26.61200
H          5.97500       25.64000       28.29600
C          7.87100       26.15200       27.96500
C          8.47100       24.81300       28.11600
H          8.48400       26.73800       27.24200
H          8.61700       24.38700       27.11700
H          7.68600       24.22800       28.65900
O          7.99700       26.91200       29.15300
H          7.84300       26.30500       29.87500
C          9.81400       24.73000       28.77500
H         10.20300       23.72100       28.92000
H          9.64700       25.07700       29.84800
H         10.57800       25.31600       28.24500


