%chk=C10H24O2_pair_012_053.chk
%nproc=8
%mem=8000Mb
#p opt b3lyp/6-31G**

Conformer number 133. Energy MM = 0.000 kcal/mol

0 1
H         16.19600       15.39300        1.80300
C         16.69700       15.55200        2.75800
C         17.45200       14.35400        3.30500
H         17.45100       16.37400        2.60000
H         15.96800       15.91200        3.47300
H         16.75400       13.77600        3.85200
H         18.21700       14.63500        4.06500
C         18.09900       13.51200        2.24300
C         19.06500       12.54500        2.70900
H         17.31900       12.90400        1.76600
H         18.52100       11.77800        3.24100
H         19.73900       12.96200        3.42600
O         18.75800       14.38700        1.26200
H         18.14600       14.53800        0.52400
C         19.82400       11.83200        1.61600
H         20.69700       11.51300        2.20100
H         20.29300       12.53400        0.85600
H         19.39400       10.93600        1.19200
H         13.17900       14.02300        0.61300
C         12.40300       14.77600        0.95500
C         12.82500       16.18100        0.60800
H         11.41400       14.55600        0.57700
H         12.23200       14.57700        1.98700
H         12.84700       16.36200       -0.46300
H         13.77900       16.28300        1.04200
C         11.88300       17.11400        1.14400
C         12.13400       18.54500        0.92900
H         10.81500       16.86500        0.65100
H         12.16400       18.74500       -0.09100
H         13.14800       18.71100        1.45400
O         11.81900       16.86800        2.52700
H         10.90600       17.08900        2.81500
C         11.07900       19.50500        1.51800
H         10.94000       19.26500        2.56500
H         10.21600       19.48900        0.86100
H         11.46900       20.56900        1.48500


