%chk=C10H24O2_pair_059_091.chk
%nproc=8
%mem=8000Mb
#p opt b3lyp/6-31G**

Conformer number 504. Energy MM = 0.000 kcal/mol

0 1
H          6.07100       19.73600       21.29400
C          5.48200       20.32900       20.54900
C          5.11400       21.74500       21.13900
H          6.13100       20.53600       19.67000
H          4.58800       19.74500       20.12800
H          4.72500       22.48200       20.37600
H          5.94300       22.19700       21.60500
C          4.23200       21.46900       22.26800
C          3.44700       22.67800       22.58100
H          3.37200       20.84200       21.82200
H          2.80900       23.02400       21.67400
H          4.15100       23.50700       22.72300
O          4.91300       20.90000       23.37000
H          4.20100       20.43800       23.90700
C          2.39200       22.42000       23.66800
H          1.73000       21.59100       23.32300
H          2.00900       23.39400       23.96100
H          2.95100       22.15600       24.65700
H         -2.40900       23.50000       21.18600
C         -2.16500       22.47800       20.83700
C         -0.67500       22.45800       20.30600
H         -2.36600       21.72000       21.60000
H         -2.92800       22.42700       19.98900
H         -0.13500       22.39400       21.26900
H         -0.44300       23.44000       19.80300
C         -0.32300       21.36000       19.39800
C          1.05100       21.12400       18.98800
H         -0.61700       20.46800       19.97800
H          1.78800       21.07900       19.91000
H          1.32600       22.02800       18.40900
O         -1.10700       21.47000       18.20500
H         -1.74700       20.74600       18.04700
C          1.05200       19.80000       18.24000
H          0.65900       19.01500       18.97400
H          2.05400       19.48100       17.90700
H          0.41400       19.81700       17.31400


