%chk=C10H24O2_pair_050_097.chk
%nproc=8
%mem=8000Mb
#p opt b3lyp/6-31G**

Conformer number 455. Energy MM = 0.000 kcal/mol

0 1
H         14.20200       13.56400       13.91700
C         14.13800       13.81000       14.98300
C         12.81000       14.60300       15.18900
H         14.18200       12.87100       15.50300
H         15.03400       14.39900       15.26200
H         12.01200       13.83400       15.05700
H         12.68900       15.36200       14.39600
C         12.63000       15.05400       16.49700
C         11.26700       15.34200       16.89200
H         12.92800       14.25300       17.17800
H         10.55800       14.56200       16.44200
H         11.03300       16.32800       16.46400
O         13.47400       16.16900       16.71100
H         14.35600       15.77200       16.60200
C         11.22800       15.44000       18.39000
H         10.31000       15.92900       18.77100
H         11.94300       16.19900       18.75900
H         11.39400       14.46600       18.85900
H         15.76200       16.56800       14.49700
C         15.54100       17.19900       13.63900
C         15.68900       18.59200       14.16000
H         16.13600       16.96700       12.73600
H         14.51800       16.98900       13.36000
H         15.51700       19.29000       13.29000
H         16.77300       18.73300       14.37300
C         14.85300       19.04200       15.26000
C         14.92800       20.40700       15.77400
H         13.74500       18.99900       14.89400
H         14.29600       20.36600       16.65100
H         14.31700       21.08400       15.19000
O         14.97700       18.27100       16.45800
H         14.30700       17.59200       16.42800
C         16.28300       20.89600       16.24800
H         16.78200       20.00600       16.65100
H         16.45100       21.58300       17.09500
H         16.84400       21.22200       15.40100


