%chk=C10H24O2_pair_064_084.chk
%nproc=8
%mem=8000Mb
#p opt b3lyp/6-31G**

Conformer number 525. Energy MM = 0.000 kcal/mol

0 1
H         12.56400       23.74700       18.39000
C         12.48100       22.75600       17.98700
C         12.93200       21.66400       18.95300
H         11.38500       22.54000       17.77400
H         13.03400       22.60700       17.12900
H         12.86600       20.57200       18.52600
H         12.26200       21.67000       19.84500
C         14.33500       21.82900       19.45600
C         14.81400       20.53300       20.02000
H         14.90900       22.32700       18.72700
H         15.21000       19.95400       19.23200
H         13.98600       20.01200       20.48000
O         14.30600       22.66400       20.61400
H         14.33000       23.63000       20.39100
C         15.99900       20.45600       21.07200
H         16.87700       20.74800       20.51400
H         16.07200       19.36100       21.47100
H         15.95700       21.08900       21.94900
H         18.16300       13.78300       20.18500
C         18.57900       13.52200       21.13900
C         18.70500       14.75900       22.06900
H         18.02800       12.60900       21.42900
H         19.59300       13.17700       20.85200
H         19.23500       15.46900       21.41700
H         19.46300       14.52300       22.77800
C         17.57600       15.39500       22.67100
C         18.01900       16.69800       23.16500
H         16.81200       15.57400       21.92700
H         18.57400       17.26900       22.51100
H         18.73100       16.56200       24.03500
O         17.11200       14.66900       23.75500
H         16.17100       14.59000       23.68400
C         16.95500       17.64400       23.72900
H         16.53400       17.17100       24.65400
H         16.23700       17.75700       22.96200
H         17.23100       18.64300       24.10100


