%chk=C10H24O2_pair_021_071.chk
%nproc=8
%mem=8000Mb
#p opt b3lyp/6-31G**

Conformer number 227. Energy MM = 0.000 kcal/mol

0 1
H         25.03800        3.06400       14.60200
C         24.04000        2.94400       14.35300
C         23.41800        4.29600       14.16800
H         23.94800        2.29900       13.46900
H         23.54200        2.29000       15.15400
H         23.45200        4.78600       15.13600
H         22.30200        4.19200       13.81100
C         24.15900        5.14700       13.23500
C         23.52600        6.48400       13.08600
H         25.15100        5.32800       13.61100
H         22.43000        6.29300       12.80900
H         23.94400        6.96700       12.15300
O         24.10500        4.53600       11.91400
H         24.59500        3.73900       11.88400
C         23.58300        7.37300       14.35900
H         24.62300        7.59400       14.51700
H         23.12900        6.88700       15.22600
H         23.09700        8.33900       14.14500
H         26.66500        7.36400       12.83200
C         27.35600        7.21000       11.92200
C         28.69100        8.08400       11.92200
H         27.54700        6.08800       11.99900
H         26.73400        7.45600       10.94900
H         29.22800        7.93900       12.86200
H         28.41000        9.12500       12.05600
C         29.69800        7.82300       10.88600
C         30.80700        8.73000       11.03400
H         30.07000        6.76500       11.11100
H         30.92000        8.86900       12.08800
H         30.59600        9.70100       10.72600
O         29.17600        7.73300        9.57000
H         28.75100        8.60300        9.41100
C         32.05000        8.21700       10.28000
H         31.85100        8.28600        9.20400
H         32.44800        7.20300       10.55500
H         32.81000        9.02100       10.51400


