%chk=C10H24O2_pair_068_091.chk
%nproc=8
%mem=8000Mb
#p opt b3lyp/6-31G**

Conformer number 545. Energy MM = 0.000 kcal/mol

0 1
H          3.07600       16.26600       20.28000
C          2.53400       16.61900       19.47400
C          2.39800       15.57700       18.37600
H          3.10900       17.46500       19.12800
H          1.58000       17.10200       19.86400
H          3.40900       15.35100       18.18700
H          1.80700       15.88900       17.52800
C          1.75500       14.36900       18.88500
C          0.34300       14.43700       19.37400
H          2.39300       13.92800       19.67100
H         -0.22600       14.73300       18.50800
H          0.11000       15.23100       20.10700
O          1.77800       13.31300       17.84800
H          2.70000       13.28500       17.50300
C         -0.17000       13.01700       19.91900
H          0.25700       12.66400       20.85900
H          0.04200       12.23100       19.20800
H         -1.25400       12.90500       20.10000
H         -2.40900       23.50000       21.18600
C         -2.16500       22.47800       20.83700
C         -0.67500       22.45800       20.30600
H         -2.36600       21.72000       21.60000
H         -2.92800       22.42700       19.98900
H         -0.13500       22.39400       21.26900
H         -0.44300       23.44000       19.80300
C         -0.32300       21.36000       19.39800
C          1.05100       21.12400       18.98800
H         -0.61700       20.46800       19.97800
H          1.78800       21.07900       19.91000
H          1.32600       22.02800       18.40900
O         -1.10700       21.47000       18.20500
H         -1.74700       20.74600       18.04700
C          1.05200       19.80000       18.24000
H          0.65900       19.01500       18.97400
H          2.05400       19.48100       17.90700
H          0.41400       19.81700       17.31400


