%chk=C10H24O2_pair_063_072.chk
%nproc=8
%mem=8000Mb
#p opt b3lyp/6-31G**

Conformer number 522. Energy MM = 0.000 kcal/mol

0 1
H          8.52200       20.71600        3.22600
C          7.82400       21.19600        3.87300
C          8.25900       21.19200        5.34100
H          7.70500       22.22800        3.51900
H          6.90300       20.61500        3.73100
H          7.39400       21.63800        5.86100
H          9.03200       21.94400        5.48100
C          8.67500       19.93100        5.86800
C          9.23200       20.07000        7.21000
H          7.83400       19.34300        6.06100
H          8.40200       20.41800        7.83700
H         10.05100       20.87400        7.24300
O          9.55300       19.25600        5.02400
H         10.46400       19.37900        5.33100
C          9.84900       18.89200        7.94100
H         10.22200       19.17900        8.91800
H         10.68700       18.34300        7.34900
H          9.08700       18.09500        8.12600
H          5.85600       28.06600        3.61100
C          5.97600       27.51600        2.67300
C          6.50000       26.11500        3.03300
H          5.07800       27.50300        2.10600
H          6.75900       28.03600        2.09000
H          6.49300       25.44900        2.15000
H          5.97500       25.64000        3.83400
C          7.87100       26.15200        3.50300
C          8.47100       24.81300        3.65400
H          8.48400       26.73800        2.78000
H          8.61700       24.38700        2.65500
H          7.68600       24.22800        4.19700
O          7.99700       26.91200        4.69100
H          7.84300       26.30500        5.41300
C          9.81400       24.73000        4.31300
H         10.20300       23.72100        4.45800
H          9.64700       25.07700        5.38600
H         10.57800       25.31600        3.78300


