%chk=C10H24O2_pair_028_032.chk
%nproc=8
%mem=8000Mb
#p opt b3lyp/6-31G**

Conformer number 286. Energy MM = 0.000 kcal/mol

0 1
H         10.04500       13.26300        3.68000
C          9.60900       14.11800        3.07600
C          8.71000       15.07300        3.94600
H         10.53200       14.69700        2.82800
H          9.20900       13.72700        2.08800
H          9.13500       15.29400        4.95400
H          7.78400       14.52900        4.18500
C          8.34300       16.37800        3.39000
C          7.67800       16.41600        2.06800
H          7.58400       16.79800        4.02600
H          6.67000       15.96200        2.13800
H          8.32200       16.02500        1.28400
O          9.45200       17.28400        3.29600
H          9.30800       18.03400        3.93100
C          7.42300       17.86800        1.71800
H          8.25300       18.34400        1.16000
H          7.29100       18.43800        2.72300
H          6.54100       18.05700        1.19200
H          7.96400        8.05900       -2.41200
C          8.40700        8.92400       -1.83100
C          7.77500       10.31400       -2.07300
H          8.23100        8.78600       -0.75000
H          9.51400        8.98400       -1.94000
H          6.73600       10.16100       -2.32600
H          8.29300       10.75600       -2.97300
C          7.91000       11.24400       -1.00700
C          7.20200       12.49100       -1.26700
H          7.38500       10.78600       -0.17700
H          6.16800       12.23700       -1.46500
H          7.60800       12.95200       -2.18700
O          9.26100       11.53200       -0.82200
H          9.65700       10.80300       -0.32400
C          7.39000       13.52800       -0.14200
H          8.42600       13.85900       -0.05100
H          6.97700       13.13100        0.75100
H          6.77500       14.46300       -0.36900


