%chk=C10H24O2_pair_044_078.chk
%nproc=8
%mem=8000Mb
#p opt b3lyp/6-31G**

Conformer number 420. Energy MM = 0.000 kcal/mol

0 1
H         23.76700        7.80800        5.46700
C         24.15700        7.45000        4.45700
C         23.00100        7.07800        3.48900
H         24.81600        8.31800        4.10700
H         24.83800        6.67600        4.70600
H         22.43400        7.96700        3.40100
H         22.31800        6.37500        3.92700
C         23.36100        6.65600        2.14500
C         22.29900        6.27400        1.19500
H         23.88400        7.42000        1.65200
H         21.80900        5.33300        1.51000
H         22.91300        5.95500        0.35300
O         24.26000        5.62800        2.18100
H         23.91400        4.97800        2.75200
C         21.25000        7.29900        0.82200
H         21.80400        8.15200        0.35500
H         20.56800        7.55900        1.69600
H         20.43300        6.85900        0.15300
H         17.02100        4.41500        1.84800
C         17.49500        5.40600        1.85900
C         16.41200        6.53400        1.91100
H         18.21200        5.56500        2.68000
H         18.07600        5.40900        0.89700
H         15.62400        6.32500        1.10900
H         16.87000        7.52600        1.78100
C         15.58300        6.64100        3.15200
C         14.42800        7.50300        2.97600
H         15.19600        5.64200        3.34200
H         13.71000        6.99200        2.23200
H         14.72200        8.41900        2.52500
O         16.43400        6.90300        4.25600
H         16.00500        6.70300        5.07300
C         13.72700        7.88400        4.28100
H         12.98100        8.69500        4.14000
H         14.41500        8.19800        5.06700
H         13.20100        6.98000        4.59800


