%chk=C10H24O2_pair_005_088.chk
%nproc=8
%mem=8000Mb
#p opt b3lyp/6-31G**

Conformer number 065. Energy MM = 0.000 kcal/mol

0 1
H          9.12300        0.49700       17.08600
C          9.66800        0.95400       16.26200
C         10.71100        1.95000       16.69600
H         10.15500        0.10600       15.69400
H          8.92300        1.29300       15.51100
H         11.29800        2.32100       15.83600
H         11.25900        1.46800       17.46000
C         10.11800        3.14100       17.20000
C         11.09500        4.18600       17.32100
H          9.41000        3.50200       16.40000
H         11.81900        4.21200       16.50800
H         11.66900        4.02300       18.24200
O          9.48200        3.05100       18.46600
H          8.54500        2.82600       18.32500
C         10.45600        5.61300       17.42300
H          9.86100        5.69000       18.32700
H          9.84200        5.87500       16.57400
H         11.29800        6.39300       17.37900
H          3.19100       10.15600       20.56400
C          3.51100        9.62500       19.63100
C          4.69000        8.71200       19.88700
H          2.60100        9.09200       19.44400
H          3.76400       10.35500       18.83800
H          4.42800        7.92400       20.60600
H          5.51300        9.29500       20.34600
C          5.13900        7.91700       18.73700
C          6.00500        6.78800       19.20400
H          4.17700        7.49100       18.37200
H          5.39000        5.89700       19.51700
H          6.57300        7.05000       20.19000
O          5.60400        8.73800       17.65300
H          6.02800        8.10800       17.06600
C          7.10600        6.29300       18.23900
H          7.62900        5.37600       18.59900
H          7.85200        7.05300       18.15500
H          6.66400        5.97100       17.31300


