%chk=C10H24O2_pair_017_067.chk
%nproc=8
%mem=8000Mb
#p opt b3lyp/6-31G**

Conformer number 187. Energy MM = 0.000 kcal/mol

0 1
H          1.03700        5.13500       20.68900
C          1.37400        4.46800       19.81300
C          2.03100        5.29700       18.76000
H          2.01800        3.71300       20.23600
H          0.40800        3.94700       19.47300
H          2.77900        5.79600       19.33400
H          1.29200        6.02700       18.42200
C          2.55600        4.51900       17.61300
C          3.18900        5.26100       16.53600
H          3.34000        3.91200       17.99500
H          3.28700        4.57100       15.66200
H          4.17000        5.60600       16.76600
O          1.46600        3.72400       17.01800
H          1.42100        2.93500       17.49600
C          2.43100        6.45400       15.98200
H          2.38400        7.43800       16.44900
H          1.35500        6.09200       16.00300
H          2.78600        6.61100       14.97100
H          7.87500        1.16800       20.95800
C          7.07700        0.61000       20.42100
C          5.86600        1.45100       19.95500
H          7.51900        0.07100       19.55200
H          6.64100       -0.12400       21.10100
H          5.50900        2.07600       20.80700
H          5.03400        0.79300       19.86300
C          5.90700        2.26100       18.78000
C          6.02900        1.56100       17.49700
H          4.98500        2.86600       18.77900
H          5.43800        0.64900       17.37700
H          7.12100        1.23300       17.35000
O          7.07200        3.11600       18.88400
H          6.93100        3.44400       19.73000
C          5.74500        2.52400       16.37900
H          5.70900        2.22600       15.35200
H          6.50300        3.30800       16.44900
H          4.77500        2.95900       16.58500


