%chk=C10H24O2_pair_013_046.chk
%nproc=8
%mem=8000Mb
#p opt b3lyp/6-31G**

Conformer number 145. Energy MM = 0.000 kcal/mol

0 1
H         21.36300       25.24900       19.49200
C         20.69700       25.34300       18.68700
C         20.71100       24.24100       17.63500
H         19.73400       25.30300       19.22800
H         20.75900       26.30900       18.14900
H         19.80500       24.50800       17.16400
H         20.63800       23.22600       18.04000
C         21.85300       24.33100       16.73200
C         21.69900       23.52100       15.42800
H         21.89200       25.36700       16.46300
H         20.99200       24.02300       14.74600
H         21.33100       22.43900       15.63700
O         23.10600       24.13400       17.38400
H         23.00600       23.18700       17.53000
C         23.00700       23.35000       14.68400
H         22.84800       22.98200       13.70600
H         23.65400       22.62700       15.11100
H         23.56700       24.30000       14.62500
H         22.52900       32.92400       20.81800
C         21.99900       33.09500       19.91200
C         22.65500       32.23100       18.74200
H         20.96100       32.86000       20.11700
H         22.20100       34.13500       19.56900
H         23.72600       32.43200       18.72400
H         22.33200       32.54900       17.79100
C         22.35600       30.78800       18.88900
C         22.88200       30.02400       17.76000
H         22.91400       30.40200       19.80500
H         23.93000       30.19700       17.61600
H         22.24800       30.44200       16.86800
O         21.03100       30.53800       18.95700
H         20.75300       30.36900       19.87700
C         22.57400       28.52000       17.94000
H         21.47400       28.44700       17.99800
H         22.88600       27.98600       18.85000
H         22.97100       27.98400       17.05400


