%chk=C10H24O2_pair_057_087.chk
%nproc=8
%mem=8000Mb
#p opt b3lyp/6-31G**

Conformer number 493. Energy MM = 0.000 kcal/mol

0 1
H         21.83300       15.23000       -2.06400
C         21.70900       15.92100       -1.15000
C         22.12600       15.16400        0.16600
H         22.33500       16.82900       -1.34300
H         20.64600       16.36500       -1.09700
H         23.19500       14.92900        0.07600
H         21.54700       14.21000        0.18900
C         21.92900       15.82000        1.50700
C         22.27900       14.91600        2.65400
H         22.39800       16.83700        1.62100
H         23.39700       14.87500        2.82500
H         21.91500       13.86700        2.49900
O         20.54800       16.12700        1.51700
H         20.06300       15.29800        1.45400
C         21.66700       15.25000        4.05700
H         22.00800       16.28400        4.38900
H         22.07600       14.41800        4.68000
H         20.58300       15.08900        3.95800
H         24.28300       10.52500        4.03500
C         24.20700       11.30200        3.19100
C         23.47500       10.56700        2.03800
H         23.61800       12.19500        3.55800
H         25.15500       11.69700        2.90900
H         22.54000       10.10600        2.39400
H         24.11300        9.65900        1.85200
C         23.21900       11.50400        0.92700
C         22.55300       10.97500       -0.26500
H         22.68900       12.37300        1.27900
H         21.59100       10.60000        0.05000
H         23.17700       10.13700       -0.61700
O         24.56000       11.88500        0.47400
H         25.01200       11.04100        0.32800
C         22.62900       11.95300       -1.46200
H         21.78200       11.87300       -2.11600
H         23.46500       11.73900       -2.10200
H         22.71900       13.02400       -1.15300


