%chk=C10H24O2_pair_032_090.chk
%nproc=8
%mem=8000Mb
#p opt b3lyp/6-31G**

Conformer number 328. Energy MM = 0.000 kcal/mol

0 1
H          7.96400        8.05900       22.05000
C          8.40700        8.92400       22.63100
C          7.77500       10.31400       22.38900
H          8.23100        8.78600       23.71200
H          9.51400        8.98400       22.52200
H          6.73600       10.16100       22.13600
H          8.29300       10.75600       21.48900
C          7.91000       11.24400       23.45500
C          7.20200       12.49100       23.19500
H          7.38500       10.78600       24.28500
H          6.16800       12.23700       22.99700
H          7.60800       12.95200       22.27500
O          9.26100       11.53200       23.64000
H          9.65700       10.80300       24.13800
C          7.39000       13.52800       24.32000
H          8.42600       13.85900       24.41100
H          6.97700       13.13100       25.21300
H          6.77500       14.46300       24.09300
H          7.76300        6.73900       24.66500
C          6.97100        7.06500       25.37000
C          7.34000        7.97100       26.58600
H          6.25000        7.63600       24.81400
H          6.37900        6.10800       25.69600
H          6.43700        7.99000       27.28100
H          7.37500        9.06300       26.38400
C          8.42200        7.51100       27.34900
C          8.64500        8.17500       28.60400
H          8.04100        6.52800       27.63400
H          7.62400        8.21200       29.17800
H          8.96900        9.20000       28.36600
O          9.61700        7.31600       26.62700
H          9.91400        6.51900       27.08500
C          9.63200        7.45500       29.58300
H         10.67400        7.63600       29.28100
H          9.35800        6.44500       29.62400
H          9.41100        7.80800       30.57200


