%chk=C10H24O2_pair_025_055.chk
%nproc=8
%mem=8000Mb
#p opt b3lyp/6-31G**

Conformer number 259. Energy MM = 0.000 kcal/mol

0 1
H         25.72800       15.69600       13.03600
C         25.00500       15.99900       12.31700
C         25.24100       15.23700       11.00800
H         24.09100       15.60900       12.67300
H         25.11800       17.06300       12.17700
H         25.10000       14.24400       11.40600
H         26.33000       15.23100       10.75000
C         24.32000       15.53000        9.95400
C         22.98600       15.98700       10.30300
H         24.65200       16.36600        9.23800
H         22.95400       16.93900       10.88700
H         22.50600       15.29100       11.06400
O         24.28700       14.46700        9.04800
H         23.50800       13.96500        9.21300
C         22.07600       16.12000        9.13000
H         21.06100       16.41900        9.54100
H         21.86100       15.18600        8.67700
H         22.49900       16.88600        8.35500
H         27.48500       17.04200       15.56300
C         27.65500       17.73500       14.67900
C         27.34600       19.22200       15.16500
H         28.67000       17.65100       14.40200
H         27.08900       17.47800       13.75400
H         26.41200       19.42900       15.65800
H         27.24300       19.77300       14.21400
C         28.44400       19.79400       16.00800
C         28.24800       21.24000       16.21100
H         28.46300       19.16300       16.90500
H         27.21300       21.53500       16.53800
H         28.28100       21.70500       15.17700
O         29.69800       19.67400       15.34000
H         30.38800       19.51200       15.97700
C         29.26900       21.98600       17.08200
H         29.17900       21.84500       18.18800
H         29.14200       23.06800       16.94400
H         30.31700       21.61800       16.88700


