%chk=C10H24O2_pair_037_094.chk
%nproc=8
%mem=8000Mb
#p opt b3lyp/6-31G**

Conformer number 370. Energy MM = 0.000 kcal/mol

0 1
H          3.78300       12.20400       10.95800
C          2.73000       12.39700       10.62200
C          2.04100       11.20800       10.07500
H          2.26200       12.70500       11.56600
H          2.76800       13.32500        9.91800
H          0.94500       11.32100        9.91300
H          2.17500       10.40200       10.85800
C          2.68400       10.78900        8.85900
C          1.93400        9.79700        8.09100
H          2.78400       11.61200        8.15800
H          1.78000        8.89200        8.68900
H          0.94200       10.24900        7.66700
O          4.05700       10.40000        9.18600
H          4.63500       10.95400        8.62400
C          2.74100        9.28000        6.89300
H          3.00100       10.13000        6.20700
H          2.00500        8.64400        6.34500
H          3.62700        8.63400        7.11200
H         -1.42400       13.46800       12.92900
C         -0.73300       13.34800       13.82200
C         -0.76400       11.92400       14.38900
H          0.31700       13.71100       13.57000
H         -1.20800       14.13500       14.55700
H         -0.42100       11.25300       13.59600
H         -1.85300       11.70000       14.63200
C          0.11100       11.69600       15.55300
C          0.21900       10.29400       15.92400
H          1.17100       12.09600       15.28800
H          0.57700        9.61000       15.10700
H         -0.88000        9.95400       15.87900
O         -0.38200       12.50600       16.65700
H          0.31700       12.86300       17.23600
C          0.97200        9.97500       17.28200
H          1.03700        8.94500       17.61000
H          0.60800       10.50200       18.15500
H          2.04000       10.34900       17.15000


