%chk=C10H24O2_pair_036_080.chk
%nproc=8
%mem=8000Mb
#p opt b3lyp/6-31G**

Conformer number 358. Energy MM = 0.000 kcal/mol

0 1
H         15.86800        5.45700       23.97600
C         15.07300        5.46000       23.20900
C         14.92300        4.13900       22.44600
H         14.09800        5.72200       23.64200
H         15.35700        6.31500       22.60900
H         15.70300        4.03600       21.65500
H         14.00500        4.24700       21.84700
C         14.81000        2.90600       23.25200
C         15.87400        2.65400       24.29300
H         13.84300        3.03300       23.78200
H         15.58400        3.37800       25.05700
H         16.86300        2.96200       23.89900
O         14.63600        1.84300       22.33800
H         14.35400        1.08500       22.86200
C         15.93600        1.29000       24.81600
H         14.92700        0.96600       25.15800
H         16.70600        1.04400       25.53500
H         16.14000        0.63500       23.92100
H          9.44700        3.41500       30.63800
C         10.53800        3.38900       30.87000
C         11.34700        4.16800       29.89800
H         10.68400        3.91200       31.85500
H         10.96600        2.41200       31.14500
H         12.43800        4.05100       30.17500
H         11.28400        5.28700       29.98900
C         11.23500        3.92400       28.44000
C         12.16100        4.69000       27.63500
H         11.41700        2.76200       28.19500
H         13.22600        4.49900       27.99000
H         11.82000        5.79400       27.78700
O          9.95100        4.33300       27.90600
H          9.31900        3.80400       28.38900
C         12.08700        4.19700       26.18100
H         12.79600        4.82000       25.50500
H         11.00300        4.36900       25.85500
H         12.35800        3.20000       26.17900


