%chk=C10H24O2_pair_085_099.chk
%nproc=8
%mem=8000Mb
#p opt b3lyp/6-31G**

Conformer number 594. Energy MM = 0.000 kcal/mol

0 1
H         18.01800       15.73400        5.93300
C         18.51600       16.47900        6.62200
C         17.86100       16.73700        8.03000
H         19.58700       16.41300        6.82100
H         18.30600       17.43100        6.01700
H         17.81000       15.82700        8.68200
H         16.80800       16.85300        7.65500
C         18.34400       17.92700        8.70600
C         17.81800       18.17400       10.01100
H         19.42400       17.71700        8.90500
H         18.31200       19.01500       10.57900
H         18.06700       17.30600       10.64800
O         18.15500       19.01200        7.89700
H         18.94600       19.22700        7.43200
C         16.29900       18.20500       10.04900
H         15.87400       18.86800        9.23200
H         15.95200       18.68300       11.05900
H         15.85900       17.25500        9.93800
H         18.31900       21.04400       10.92000
C         18.76100       21.96300       11.23800
C         18.11800       22.18500       12.62200
H         19.82400       22.00600       11.18200
H         18.32900       22.82200       10.56600
H         18.71300       21.68600       13.38800
H         17.18200       21.61600       12.68400
C         17.81500       23.58700       12.94100
C         17.54200       23.76500       14.37000
H         18.77100       24.09100       12.67700
H         18.27500       23.24600       14.94300
H         16.53000       23.32200       14.47100
O         16.72900       24.01700       12.12600
H         16.76000       24.96700       12.07600
C         17.52100       25.17400       14.82600
H         16.88300       25.82500       14.23100
H         18.50100       25.63400       14.84700
H         17.14900       25.20800       15.89800


