%chk=C10H24O2_pair_058_086.chk
%nproc=8
%mem=8000Mb
#p opt b3lyp/6-31G**

Conformer number 498. Energy MM = 0.000 kcal/mol

0 1
H         14.73700       17.79000        6.31100
C         15.24700       18.61500        5.79500
C         14.44400       19.96100        5.76100
H         16.24000       18.70100        6.18100
H         15.38300       18.37300        4.75100
H         15.07600       20.79200        5.32800
H         14.28000       20.17600        6.87600
C         13.23600       19.80000        4.96600
C         12.47900       21.05200        4.70800
H         13.59500       19.38300        3.96500
H         12.34700       21.71100        5.61500
H         11.51500       20.60600        4.40100
O         12.31700       18.88500        5.46100
H         12.72900       18.01000        5.21700
C         13.01200       21.91200        3.57800
H         12.33500       22.72600        3.30800
H         13.04200       21.33000        2.61600
H         14.02500       22.27700        3.74000
H         20.12700       19.53800        3.39400
C         19.21900       18.86500        3.52200
C         17.96000       19.37300        2.73200
H         19.68300       18.00000        3.12500
H         19.12700       18.64600        4.55300
H         17.02800       18.77800        2.89800
H         18.22600       19.25400        1.66600
C         17.68900       20.75600        2.95100
C         16.57400       21.25400        2.22300
H         17.39400       20.90200        3.99100
H         15.65900       20.77600        2.56600
H         16.66700       21.15500        1.11500
O         18.88300       21.54900        2.73200
H         18.94700       21.59300        1.73600
C         16.43900       22.72500        2.61000
H         17.26100       23.36700        2.24800
H         16.32500       22.87600        3.73300
H         15.57200       23.28000        2.16800


