%chk=C10H24O2_pair_031_082.chk
%nproc=8
%mem=8000Mb
#p opt b3lyp/6-31G**

Conformer number 321. Energy MM = 0.000 kcal/mol

0 1
H          3.67000       21.61700        3.82500
C          3.75700       21.02400        2.89700
C          3.62500       19.45600        3.04300
H          2.98600       21.47700        2.15600
H          4.71000       21.36500        2.42300
H          4.26300       19.13200        3.89800
H          4.03900       19.06000        2.11700
C          2.30000       18.93100        3.20900
C          2.17900       17.45400        3.25000
H          1.91000       19.19700        4.18900
H          2.49000       16.99100        4.23000
H          2.79700       16.97000        2.45500
O          1.59000       19.45700        2.15000
H          0.74500       19.65400        2.54300
C          0.73900       16.96000        3.03400
H          0.65100       15.84300        3.24400
H          0.39400       17.21400        2.02500
H         -0.01900       17.47600        3.64000
H          1.46800       29.04800       -1.24300
C          1.30500       28.75500       -0.18300
C          2.28600       27.56700        0.08800
H          1.44400       29.49100        0.58200
H          0.30200       28.37000       -0.21200
H          3.34700       27.89900        0.09700
H          2.16400       26.74500       -0.65000
C          2.23700       27.03600        1.48500
C          2.94600       25.74000        1.43000
H          2.78500       27.69300        2.15400
H          4.02000       25.79700        1.08600
H          2.45300       25.06100        0.70700
O          0.93100       26.86300        2.10000
H          0.68400       25.98100        1.96400
C          2.89300       24.89300        2.74900
H          1.83500       24.60000        3.01600
H          3.43700       25.39300        3.61100
H          3.35900       23.86200        2.49100


