%chk=C10H24O2_pair_026_029.chk
%nproc=8
%mem=8000Mb
#p opt b3lyp/6-31G**

Conformer number 266. Energy MM = 0.000 kcal/mol

0 1
H          6.34900       22.80300       26.44900
C          6.75100       22.74700       25.43600
C          8.11000       22.05000       25.35800
H          6.14200       22.24300       24.76600
H          6.93800       23.80100       25.03600
H          8.03100       21.07800       25.85500
H          8.79100       22.63300       25.98300
C          8.63600       21.78400       24.03100
C          8.80000       22.97800       23.28200
H          9.65100       21.23700       24.07200
H          9.60600       23.54400       23.78100
H          7.93500       23.59100       23.27800
O          7.75600       20.94200       23.19100
H          6.84900       20.87700       23.51400
C          9.31900       22.75100       21.84400
H         10.21200       22.13900       21.79300
H          9.53900       23.73000       21.35800
H          8.50800       22.27500       21.24200
H         12.65800       25.72400       24.33000
C         11.82400       25.12900       24.76000
C         12.25300       23.68300       24.84300
H         11.59000       25.47900       25.73500
H         10.95200       25.36700       24.16100
H         11.54300       23.07100       25.37400
H         13.19800       23.66300       25.43300
C         12.58500       23.11800       23.49900
C         12.91700       21.70100       23.56000
H         11.75700       23.47500       22.77500
H         13.05500       21.31200       22.51500
H         12.05500       21.10400       23.85700
O         13.71400       23.69700       22.91300
H         13.89500       23.12000       22.15800
C         14.17400       21.25000       24.38900
H         13.98600       21.07100       25.41000
H         14.96200       22.06000       24.44800
H         14.64100       20.42000       23.81900


