%chk=C10H24O2_pair_032_092.chk
%nproc=8
%mem=8000Mb
#p opt b3lyp/6-31G**

Conformer number 329. Energy MM = 0.000 kcal/mol

0 1
H          7.96400        8.05900       22.05000
C          8.40700        8.92400       22.63100
C          7.77500       10.31400       22.38900
H          8.23100        8.78600       23.71200
H          9.51400        8.98400       22.52200
H          6.73600       10.16100       22.13600
H          8.29300       10.75600       21.48900
C          7.91000       11.24400       23.45500
C          7.20200       12.49100       23.19500
H          7.38500       10.78600       24.28500
H          6.16800       12.23700       22.99700
H          7.60800       12.95200       22.27500
O          9.26100       11.53200       23.64000
H          9.65700       10.80300       24.13800
C          7.39000       13.52800       24.32000
H          8.42600       13.85900       24.41100
H          6.97700       13.13100       25.21300
H          6.77500       14.46300       24.09300
H          3.79600       13.32800       28.39500
C          3.75500       14.27200       27.89100
C          3.91000       14.18100       26.32100
H          2.73600       14.71600       28.01700
H          4.56200       14.85200       28.30400
H          4.89400       13.66800       26.15400
H          3.95500       15.19100       25.97900
C          2.94000       13.36500       25.59900
C          3.35900       13.51900       24.19900
H          2.96400       12.24800       25.86300
H          4.28400       12.94600       23.97000
H          3.47200       14.62400       23.96800
O          1.64400       13.87400       25.86400
H          1.10700       13.17200       25.47600
C          2.32300       13.16200       23.16600
H          1.32500       13.81100       23.27900
H          1.91800       12.23500       23.24600
H          2.60800       13.31800       22.09500


