%chk=C10H24O2_pair_096_099.chk
%nproc=8
%mem=8000Mb
#p opt b3lyp/6-31G**

Conformer number 603. Energy MM = 0.000 kcal/mol

0 1
H         13.80000        1.60500       18.68600
C         14.40000        2.25500       18.01400
C         15.60900        2.56500       18.86900
H         14.56900        1.66200       17.15400
H         13.92500        3.22300       17.70000
H         15.22900        3.19900       19.67200
H         16.33000        3.14500       18.23800
C         16.13100        1.32600       19.46700
C         16.74800        0.38000       18.59000
H         16.87800        1.61800       20.24200
H         17.62700        0.83200       17.96900
H         16.01200        0.02500       17.78800
O         15.03400        0.72300       20.13700
H         14.70300        1.40700       20.79600
C         17.37400       -0.71900       19.42300
H         18.19800       -0.30300       20.00800
H         17.80800       -1.59200       18.91200
H         16.69700       -1.21700       20.17800
H         18.31900       -3.41800       10.92000
C         18.76100       -2.49900       11.23800
C         18.11800       -2.27700       12.62200
H         19.82400       -2.45600       11.18200
H         18.32900       -1.64000       10.56600
H         18.71300       -2.77600       13.38800
H         17.18200       -2.84600       12.68400
C         17.81500       -0.87500       12.94100
C         17.54200       -0.69700       14.37000
H         18.77100       -0.37100       12.67700
H         18.27500       -1.21600       14.94300
H         16.53000       -1.14000       14.47100
O         16.72900       -0.44500       12.12600
H         16.76000        0.50500       12.07600
C         17.52100        0.71200       14.82600
H         16.88300        1.36300       14.23100
H         18.50100        1.17200       14.84700
H         17.14900        0.74600       15.89800


