%chk=C10H24O2_pair_013_099.chk
%nproc=8
%mem=8000Mb
#p opt b3lyp/6-31G**

Conformer number 151. Energy MM = 0.000 kcal/mol

0 1
H         21.36300       25.24900       19.49200
C         20.69700       25.34300       18.68700
C         20.71100       24.24100       17.63500
H         19.73400       25.30300       19.22800
H         20.75900       26.30900       18.14900
H         19.80500       24.50800       17.16400
H         20.63800       23.22600       18.04000
C         21.85300       24.33100       16.73200
C         21.69900       23.52100       15.42800
H         21.89200       25.36700       16.46300
H         20.99200       24.02300       14.74600
H         21.33100       22.43900       15.63700
O         23.10600       24.13400       17.38400
H         23.00600       23.18700       17.53000
C         23.00700       23.35000       14.68400
H         22.84800       22.98200       13.70600
H         23.65400       22.62700       15.11100
H         23.56700       24.30000       14.62500
H         18.31900       21.04400       10.92000
C         18.76100       21.96300       11.23800
C         18.11800       22.18500       12.62200
H         19.82400       22.00600       11.18200
H         18.32900       22.82200       10.56600
H         18.71300       21.68600       13.38800
H         17.18200       21.61600       12.68400
C         17.81500       23.58700       12.94100
C         17.54200       23.76500       14.37000
H         18.77100       24.09100       12.67700
H         18.27500       23.24600       14.94300
H         16.53000       23.32200       14.47100
O         16.72900       24.01700       12.12600
H         16.76000       24.96700       12.07600
C         17.52100       25.17400       14.82600
H         16.88300       25.82500       14.23100
H         18.50100       25.63400       14.84700
H         17.14900       25.20800       15.89800


