%chk=C10H24O2_pair_052_095.chk
%nproc=8
%mem=8000Mb
#p opt b3lyp/6-31G**

Conformer number 469. Energy MM = 0.000 kcal/mol

0 1
H          5.38300       16.75900       22.63500
C          4.75700       17.38200       23.31000
C          3.40000       17.82000       22.77900
H          4.59200       16.68600       24.17700
H          5.35300       18.23900       23.65400
H          2.94900       17.13300       22.06600
H          3.43700       18.71500       22.23700
C          2.44800       18.23000       23.87900
C          1.06800       18.22900       23.52100
H          2.55200       17.57200       24.73500
H          0.51900       18.59900       24.41100
H          0.73600       17.18100       23.44100
O          2.85400       19.52900       24.36300
H          2.24400       19.66600       25.07700
C          0.51700       18.94400       22.25600
H          0.79600       20.07000       22.34500
H         -0.62300       18.68500       22.18700
H          1.04500       18.63400       21.29700
H         12.19600       16.87700       21.16300
C         12.44500       17.92000       21.52300
C         11.39400       18.94000       21.04000
H         12.69100       17.88700       22.67400
H         13.40700       18.00000       21.00400
H         11.26200       18.89900       19.94200
H         11.84700       19.95300       21.04800
C         10.09600       18.82200       21.65300
C          9.53400       17.47500       21.76000
H         10.14900       19.27100       22.76500
H         10.13500       16.71800       22.36400
H          9.38800       17.07600       20.71500
O          9.22000       19.65200       20.90600
H          8.74100       20.12800       21.59200
C          8.13500       17.46000       22.37200
H          7.83000       16.43300       22.37000
H          7.48700       18.05800       21.76300
H          8.19400       17.83700       23.38900


