%chk=C10H24O2_pair_051_052.chk
%nproc=8
%mem=8000Mb
#p opt b3lyp/6-31G**

Conformer number 456. Energy MM = 0.000 kcal/mol

0 1
H         22.09300       20.56200       -1.02000
C         22.78300       20.69300       -0.18600
C         22.08300       20.98500        1.15400
H         23.24200       19.71700       -0.14800
H         23.60600       21.44400       -0.46100
H         21.33500       20.22000        1.32600
H         21.59900       21.95000        1.19400
C         22.95600       21.05600        2.40700
C         24.00600       22.07800        2.33000
H         22.37100       21.47100        3.28200
H         23.48200       23.02900        2.18300
H         24.82000       21.92000        1.58700
O         23.51800       19.80500        2.82400
H         22.80500       19.20700        2.90400
C         24.75600       22.20900        3.73100
H         25.34700       23.13900        3.75900
H         25.45900       21.32800        3.93500
H         24.09600       22.47200        4.59000
H         29.84500       16.75900       -1.82700
C         29.21900       17.38200       -1.15200
C         27.86200       17.82000       -1.68300
H         29.05400       16.68600       -0.28500
H         29.81500       18.23900       -0.80800
H         27.41100       17.13300       -2.39600
H         27.89900       18.71500       -2.22500
C         26.91000       18.23000       -0.58300
C         25.53000       18.22900       -0.94100
H         27.01400       17.57200        0.27300
H         24.98100       18.59900       -0.05100
H         25.19800       17.18100       -1.02100
O         27.31600       19.52900       -0.09900
H         26.70600       19.66600        0.61500
C         24.97900       18.94400       -2.20600
H         25.25800       20.07000       -2.11700
H         23.83900       18.68500       -2.27500
H         25.50700       18.63400       -3.16500


