%chk=C10H24O2_pair_039_066.chk
%nproc=8
%mem=8000Mb
#p opt b3lyp/6-31G**

Conformer number 379. Energy MM = 0.000 kcal/mol

0 1
H         14.27000       24.12400        8.90300
C         14.36600       23.19800        8.37400
C         15.16600       22.11400        9.13900
H         13.35300       22.92100        8.17600
H         14.79100       23.55600        7.41900
H         16.17600       22.56000        9.38200
H         15.31200       21.27600        8.48000
C         14.56800       21.68900       10.40700
C         13.19900       21.21700       10.10800
H         15.10200       20.83500       10.75800
H         13.19900       20.63800        9.13700
H         12.52500       22.08900        9.97100
O         14.43300       22.63300       11.51200
H         15.30100       23.04800       11.62600
C         12.55500       20.46500       11.25300
H         11.66700       19.77600       11.03200
H         12.26000       21.05200       12.17800
H         13.21700       19.73000       11.67300
H         13.19000       24.55400        5.16800
C         14.04300       25.25200        5.36700
C         14.46200       26.00200        4.11500
H         13.73900       25.83300        6.28600
H         15.03900       24.73900        5.77500
H         13.69400       26.72100        3.71100
H         14.69700       25.29100        3.24000
C         15.67300       26.76700        4.38200
C         16.90900       26.05000        4.66000
H         15.81300       27.31400        3.46400
H         17.11000       25.21300        3.94800
H         16.81700       25.42500        5.55300
O         15.24700       27.78500        5.28800
H         15.04600       27.26400        6.11200
C         18.13800       27.00300        4.82500
H         18.35500       27.13600        5.88100
H         18.12000       27.98800        4.35800
H         19.08700       26.52900        4.50600


