%chk=C10H24O2_pair_043_045.chk
%nproc=8
%mem=8000Mb
#p opt b3lyp/6-31G**

Conformer number 411. Energy MM = 0.000 kcal/mol

0 1
H         13.71900        6.77500       18.50100
C         14.14000        5.99300       19.12700
C         15.67000        6.02400       19.18100
H         13.81400        6.21500       20.16600
H         13.61000        5.15100       18.79000
H         16.15300        5.63100       18.26300
H         15.97500        5.29300       19.95100
C         16.23800        7.34600       19.47300
C         16.18200        8.27900       18.36500
H         15.75700        7.70700       20.38500
H         15.09600        8.50500       18.15200
H         16.77700        7.81000       17.56000
O         17.59400        7.20200       20.05100
H         18.05300        7.11400       19.17300
C         16.80600        9.63900       18.58500
H         17.87100        9.50300       18.91100
H         16.32300       10.12900       19.43900
H         16.81600       10.25600       17.71600
H         18.88600        2.67900       16.54000
C         18.53000        3.70500       16.82000
C         19.28900        4.80000       16.02200
H         17.46400        3.83100       16.45800
H         18.49800        3.90300       17.93500
H         19.05700        4.69300       14.97000
H         20.36200        4.76900       16.16600
C         18.88500        6.21700       16.29900
C         19.54800        7.14000       15.41100
H         17.82400        6.34800       16.02300
H         19.16800        6.89800       14.37600
H         20.62500        6.82600       15.37500
O         18.94900        6.47900       17.70900
H         19.84900        6.26200       17.95100
C         19.31400        8.58900       15.69100
H         19.48300        8.75600       16.78500
H         18.23800        8.82600       15.44400
H         19.91300        9.30900       15.06400


