%chk=C10H24O2_pair_016_044.chk
%nproc=8
%mem=8000Mb
#p opt b3lyp/6-31G**

Conformer number 173. Energy MM = 0.000 kcal/mol

0 1
H          3.44600        4.42600        3.84400
C          3.06100        5.46500        3.75600
C          3.70400        6.12700        2.53100
H          1.97700        5.46400        3.75800
H          3.46100        5.94700        4.65200
H          3.53300        5.50700        1.60700
H          4.86200        6.18300        2.72200
C          3.24200        7.48400        2.22000
C          3.16700        8.32600        3.40800
H          3.85400        7.94600        1.41100
H          4.08500        8.29200        4.01100
H          2.32800        8.02700        3.98600
O          1.90600        7.49000        1.61500
H          1.41000        6.76000        2.00300
C          3.02400        9.78700        2.98900
H          3.12200       10.61300        3.76000
H          2.15000        9.93500        2.30000
H          3.90000       10.08800        2.32100
H         -0.69500        7.80800        5.46700
C         -0.30500        7.45000        4.45700
C         -1.46100        7.07800        3.48900
H          0.35400        8.31800        4.10700
H          0.37600        6.67600        4.70600
H         -2.02800        7.96700        3.40100
H         -2.14400        6.37500        3.92700
C         -1.10100        6.65600        2.14500
C         -2.16300        6.27400        1.19500
H         -0.57800        7.42000        1.65200
H         -2.65300        5.33300        1.51000
H         -1.54900        5.95500        0.35300
O         -0.20200        5.62800        2.18100
H         -0.54800        4.97800        2.75200
C         -3.21200        7.29900        0.82200
H         -2.65800        8.15200        0.35500
H         -3.89400        7.55900        1.69600
H         -4.02900        6.85900        0.15300


