%chk=C10H24O2_pair_007_059.chk
%nproc=8
%mem=8000Mb
#p opt b3lyp/6-31G**

Conformer number 086. Energy MM = 0.000 kcal/mol

0 1
H         22.93600        0.29600       -1.74400
C         23.63700        0.37400       -0.87600
C         23.09300        1.34700        0.17700
H         23.76600       -0.56100       -0.39100
H         24.65400        0.60800       -1.41100
H         23.43300        2.36100       -0.03900
H         23.52400        1.15900        1.12900
C         21.66200        1.28300        0.28500
C         21.15800        2.28500        1.21100
H         21.32600        1.47000       -0.75100
H         21.54500        3.30200        0.86700
H         21.69200        2.09100        2.15500
O         21.18300        0.01300        0.60600
H         21.62300       -0.62000        0.02700
C         19.65500        2.24600        1.32200
H         19.20800        2.56200        0.32000
H         19.35700        2.99200        2.10500
H         19.21200        1.19500        1.55800
H         30.53300       -4.72600       -3.16800
C         29.94400       -4.13300       -3.91300
C         29.57600       -2.71700       -3.32300
H         30.59300       -3.92600       -4.79200
H         29.05000       -4.71700       -4.33400
H         29.18700       -1.98000       -4.08600
H         30.40500       -2.26500       -2.85700
C         28.69400       -2.99300       -2.19400
C         27.90900       -1.78400       -1.88100
H         27.83400       -3.62000       -2.64000
H         27.27100       -1.43800       -2.78800
H         28.61300       -0.95500       -1.73900
O         29.37500       -3.56200       -1.09200
H         28.66300       -4.02400       -0.55500
C         26.85400       -2.04200       -0.79400
H         26.19200       -2.87100       -1.13900
H         26.47100       -1.06800       -0.50100
H         27.41300       -2.30600        0.19500


