%chk=C10H24O2_pair_011_044.chk
%nproc=8
%mem=8000Mb
#p opt b3lyp/6-31G**

Conformer number 122. Energy MM = 0.000 kcal/mol

0 1
H         15.74100        9.60700       25.29400
C         16.74000        9.67100       24.77600
C         16.84900        8.56900       23.64800
H         16.90400       10.70700       24.27000
H         17.57500        9.62400       25.44800
H         16.48200        8.96500       22.69800
H         16.19000        7.76200       23.92400
C         18.18900        8.11500       23.42100
C         19.11500        9.16300       22.96000
H         18.54400        7.66500       24.39500
H         19.99400        8.73100       22.53100
H         19.36300        9.86000       23.79000
O         18.25600        7.02700       22.46700
H         17.95700        7.32300       21.62200
C         18.59300       10.00800       21.70400
H         17.48600       10.30500       21.70300
H         18.70500        9.32400       20.85700
H         19.24100       10.84400       21.43000
H         23.76700        7.80800       29.92900
C         24.15700        7.45000       28.91900
C         23.00100        7.07800       27.95100
H         24.81600        8.31800       28.56900
H         24.83800        6.67600       29.16800
H         22.43400        7.96700       27.86300
H         22.31800        6.37500       28.38900
C         23.36100        6.65600       26.60700
C         22.29900        6.27400       25.65700
H         23.88400        7.42000       26.11400
H         21.80900        5.33300       25.97200
H         22.91300        5.95500       24.81500
O         24.26000        5.62800       26.64300
H         23.91400        4.97800       27.21400
C         21.25000        7.29900       25.28400
H         21.80400        8.15200       24.81700
H         20.56800        7.55900       26.15800
H         20.43300        6.85900       24.61500


