%chk=C10H24O2_pair_064_070.chk
%nproc=8
%mem=8000Mb
#p opt b3lyp/6-31G**

Conformer number 523. Energy MM = 0.000 kcal/mol

0 1
H         12.56400       23.74700       18.39000
C         12.48100       22.75600       17.98700
C         12.93200       21.66400       18.95300
H         11.38500       22.54000       17.77400
H         13.03400       22.60700       17.12900
H         12.86600       20.57200       18.52600
H         12.26200       21.67000       19.84500
C         14.33500       21.82900       19.45600
C         14.81400       20.53300       20.02000
H         14.90900       22.32700       18.72700
H         15.21000       19.95400       19.23200
H         13.98600       20.01200       20.48000
O         14.30600       22.66400       20.61400
H         14.33000       23.63000       20.39100
C         15.99900       20.45600       21.07200
H         16.87700       20.74800       20.51400
H         16.07200       19.36100       21.47100
H         15.95700       21.08900       21.94900
H          9.33800       22.45200       19.03400
C          8.62800       22.05300       18.40100
C          9.21200       21.34100       17.16200
H          8.02300       21.44100       19.05000
H          8.01800       22.84000       17.96500
H          9.89100       22.05500       16.64500
H          8.42500       21.18400       16.37900
C          9.95900       20.09500       17.31800
C         10.10000       19.60500       15.94800
H         10.96600       20.17300       17.72400
H          9.08900       19.38900       15.52300
H         10.51500       18.60500       16.05400
O          9.25200       19.17200       18.14000
H          9.32700       19.52900       19.02200
C         10.90400       20.40200       14.94000
H         11.07500       19.80100       14.00500
H         11.92600       20.62400       15.35000
H         10.37100       21.34200       14.68200


