%chk=C10H24O2_pair_044_082.chk
%nproc=8
%mem=8000Mb
#p opt b3lyp/6-31G**

Conformer number 422. Energy MM = 0.000 kcal/mol

0 1
H         23.76700        7.80800        5.46700
C         24.15700        7.45000        4.45700
C         23.00100        7.07800        3.48900
H         24.81600        8.31800        4.10700
H         24.83800        6.67600        4.70600
H         22.43400        7.96700        3.40100
H         22.31800        6.37500        3.92700
C         23.36100        6.65600        2.14500
C         22.29900        6.27400        1.19500
H         23.88400        7.42000        1.65200
H         21.80900        5.33300        1.51000
H         22.91300        5.95500        0.35300
O         24.26000        5.62800        2.18100
H         23.91400        4.97800        2.75200
C         21.25000        7.29900        0.82200
H         21.80400        8.15200        0.35500
H         20.56800        7.55900        1.69600
H         20.43300        6.85900        0.15300
H         25.93000        4.58600       -1.24300
C         25.76700        4.29300       -0.18300
C         26.74800        3.10500        0.08800
H         25.90600        5.02900        0.58200
H         24.76400        3.90800       -0.21200
H         27.80900        3.43700        0.09700
H         26.62600        2.28300       -0.65000
C         26.69900        2.57400        1.48500
C         27.40800        1.27800        1.43000
H         27.24700        3.23100        2.15400
H         28.48200        1.33500        1.08600
H         26.91500        0.59900        0.70700
O         25.39300        2.40100        2.10000
H         25.14600        1.51900        1.96400
C         27.35500        0.43100        2.74900
H         26.29700        0.13800        3.01600
H         27.89900        0.93100        3.61100
H         27.82100       -0.60000        2.49100


