%chk=C10H24O2_pair_002_057.chk
%nproc=8
%mem=8000Mb
#p opt b3lyp/6-31G**

Conformer number 031. Energy MM = 0.000 kcal/mol

0 1
H         22.43700       20.29800       10.86400
C         22.75800       20.08000        9.82200
C         21.79600       20.58700        8.74700
H         23.79600       20.42400        9.67500
H         22.74100       18.94300        9.83700
H         21.93800       21.61100        8.44500
H         20.80700       20.47200        9.17600
C         21.77300       19.71800        7.56400
C         22.97900       19.84100        6.81400
H         21.74000       18.69200        7.88300
H         23.92500       19.82300        7.46100
H         22.86700       20.68300        6.10100
O         20.60400       19.77900        6.67500
H         20.68100       20.54200        6.10600
C         23.26900       18.67300        5.80400
H         22.46100       18.66200        5.04000
H         23.19800       17.72100        6.32600
H         24.30200       18.87100        5.38000
H         21.83300       15.23000       -2.06400
C         21.70900       15.92100       -1.15000
C         22.12600       15.16400        0.16600
H         22.33500       16.82900       -1.34300
H         20.64600       16.36500       -1.09700
H         23.19500       14.92900        0.07600
H         21.54700       14.21000        0.18900
C         21.92900       15.82000        1.50700
C         22.27900       14.91600        2.65400
H         22.39800       16.83700        1.62100
H         23.39700       14.87500        2.82500
H         21.91500       13.86700        2.49900
O         20.54800       16.12700        1.51700
H         20.06300       15.29800        1.45400
C         21.66700       15.25000        4.05700
H         22.00800       16.28400        4.38900
H         22.07600       14.41800        4.68000
H         20.58300       15.08900        3.95800


