%chk=C10H24O2_pair_045_077.chk
%nproc=8
%mem=8000Mb
#p opt b3lyp/6-31G**

Conformer number 428. Energy MM = 0.000 kcal/mol

0 1
H         18.88600        2.67900       16.54000
C         18.53000        3.70500       16.82000
C         19.28900        4.80000       16.02200
H         17.46400        3.83100       16.45800
H         18.49800        3.90300       17.93500
H         19.05700        4.69300       14.97000
H         20.36200        4.76900       16.16600
C         18.88500        6.21700       16.29900
C         19.54800        7.14000       15.41100
H         17.82400        6.34800       16.02300
H         19.16800        6.89800       14.37600
H         20.62500        6.82600       15.37500
O         18.94900        6.47900       17.70900
H         19.84900        6.26200       17.95100
C         19.31400        8.58900       15.69100
H         19.48300        8.75600       16.78500
H         18.23800        8.82600       15.44400
H         19.91300        9.30900       15.06400
H         18.01100        7.27400       11.92300
C         17.08800        6.79100       11.74700
C         16.49300        6.15200       13.02200
H         16.47600        7.59500       11.25900
H         17.38600        6.05200       10.91800
H         16.34700        6.99000       13.67600
H         17.27200        5.55600       13.59500
C         15.21100        5.42300       12.90000
C         14.75700        4.96800       14.23300
H         14.38900        5.95500       12.30400
H         15.52100        4.38500       14.75500
H         13.97200        4.24400       14.02200
O         15.49800        4.23600       12.11300
H         14.62000        3.74100       12.07700
C         14.16600        6.02600       15.17400
H         14.90200        6.86400       15.45400
H         13.75100        5.60800       16.11500
H         13.36900        6.48000       14.63500


