%chk=C10H24O2_pair_019_053.chk
%nproc=8
%mem=8000Mb
#p opt b3lyp/6-31G**

Conformer number 207. Energy MM = 0.000 kcal/mol

0 1
H          9.76000       13.63700       22.33400
C         10.39200       13.75300       21.44800
C         11.89400       13.59800       21.70700
H         10.08900       12.91300       20.81400
H         10.21800       14.71500       20.98400
H         12.29000       14.44400       22.30500
H         12.45400       13.76100       20.73400
C         12.40300       12.25200       22.09600
C         13.81100       11.91600       21.85200
H         12.27200       12.32000       23.18300
H         14.20700       11.95700       20.80400
H         14.00100       10.81000       22.07400
O         11.50900       11.22500       21.61800
H         10.66400       11.32400       22.08900
C         14.65900       12.75300       22.77300
H         15.73200       12.55400       22.79400
H         14.16400       12.68500       23.77100
H         14.50900       13.81100       22.51300
H         13.17900       14.02300       25.07500
C         12.40300       14.77600       25.41700
C         12.82500       16.18100       25.07000
H         11.41400       14.55600       25.03900
H         12.23200       14.57700       26.44900
H         12.84700       16.36200       23.99900
H         13.77900       16.28300       25.50400
C         11.88300       17.11400       25.60600
C         12.13400       18.54500       25.39100
H         10.81500       16.86500       25.11300
H         12.16400       18.74500       24.37100
H         13.14800       18.71100       25.91600
O         11.81900       16.86800       26.98900
H         10.90600       17.08900       27.27700
C         11.07900       19.50500       25.98000
H         10.94000       19.26500       27.02700
H         10.21600       19.48900       25.32300
H         11.46900       20.56900       25.94700


