%chk=C10H24O2_pair_000_049.chk
%nproc=8
%mem=8000Mb
#p opt b3lyp/6-31G**

Conformer number 005. Energy MM = 0.000 kcal/mol

0 1
H          9.65300       13.53000        9.14100
C          8.67700       13.24300        9.58800
C          8.71400       11.82800       10.24500
H          8.30800       13.94500       10.33400
H          7.92300       13.29500        8.76300
H          9.10800       11.21700        9.44200
H          7.70000       11.38700       10.49000
C          9.60000       11.64300       11.37100
C          9.01700       12.41900       12.48100
H          9.51000       10.51700       11.63400
H          7.97500       12.21500       12.75000
H          8.96700       13.49300       12.14600
O         10.90000       12.08900       11.19600
H         11.21300       11.64900       10.39700
C          9.85400       12.34100       13.78500
H          9.31100       12.90000       14.53800
H         10.90300       12.78000       13.65000
H          9.94200       11.24000       14.23600
H         10.70100        7.49500       13.79900
C         11.02400        7.88900       12.81800
C         12.41500        8.62600       12.93300
H         11.05900        7.15500       12.02400
H         10.28100        8.69300       12.52500
H         12.56400        9.13200       11.96200
H         13.27600        7.95800       12.97900
C         12.42600        9.66400       13.98800
C         13.74400       10.33400       14.15600
H         11.69200       10.45800       13.81100
H         13.53400       11.10700       14.91700
H         14.02200       10.79900       13.20600
O         12.04100        9.01100       15.16700
H         12.77100        8.40700       15.29300
C         14.91700        9.50900       14.64600
H         15.15300        8.83400       13.81200
H         14.75500        8.91800       15.55500
H         15.73500       10.18100       14.87700


