%chk=C10H24O2_pair_050_083.chk
%nproc=8
%mem=8000Mb
#p opt b3lyp/6-31G**

Conformer number 453. Energy MM = 0.000 kcal/mol

0 1
H         14.20200       13.56400       13.91700
C         14.13800       13.81000       14.98300
C         12.81000       14.60300       15.18900
H         14.18200       12.87100       15.50300
H         15.03400       14.39900       15.26200
H         12.01200       13.83400       15.05700
H         12.68900       15.36200       14.39600
C         12.63000       15.05400       16.49700
C         11.26700       15.34200       16.89200
H         12.92800       14.25300       17.17800
H         10.55800       14.56200       16.44200
H         11.03300       16.32800       16.46400
O         13.47400       16.16900       16.71100
H         14.35600       15.77200       16.60200
C         11.22800       15.44000       18.39000
H         10.31000       15.92900       18.77100
H         11.94300       16.19900       18.75900
H         11.39400       14.46600       18.85900
H          7.92700       16.04000       18.90300
C          7.12300       16.78700       19.18000
C          6.08900       16.75100       18.09400
H          6.67500       16.56500       20.14300
H          7.59400       17.78400       19.24100
H          5.25700       17.52100       18.29000
H          5.57800       15.75700       18.01600
C          6.74300       17.08900       16.78900
C          7.74900       16.14800       16.24200
H          6.04400       17.06700       15.96700
H          7.09400       15.17100       16.13800
H          8.53000       15.84400       16.89900
O          7.13600       18.49500       16.78600
H          7.76900       18.47100       17.53300
C          8.24500       16.60600       14.84300
H          9.06300       16.08400       14.54700
H          8.49500       17.66200       14.94300
H          7.52400       16.52300       14.07600


