%chk=C10H24O2_pair_001_095.chk
%nproc=8
%mem=8000Mb
#p opt b3lyp/6-31G**

Conformer number 021. Energy MM = 0.000 kcal/mol

0 1
H         15.44800       12.97300       17.13200
C         15.79600       12.90600       18.11800
C         15.40400       14.17100       18.92200
H         15.14500       12.12200       18.50300
H         16.78800       12.61400       18.20000
H         15.60000       13.89900       19.98900
H         14.31100       14.39400       18.79000
C         16.11100       15.32100       18.49100
C         15.84500       16.63600       19.19500
H         17.19700       15.07300       18.62700
H         15.78500       16.48600       20.25100
H         14.85000       17.02100       18.92300
O         15.97100       15.61000       17.10900
H         16.32800       16.49800       16.89100
C         17.04400       17.72700       19.04200
H         17.03600       18.57200       19.65100
H         17.07300       18.10200       18.03400
H         17.95000       17.14600       19.34800
H         12.19600       16.87700       21.16300
C         12.44500       17.92000       21.52300
C         11.39400       18.94000       21.04000
H         12.69100       17.88700       22.67400
H         13.40700       18.00000       21.00400
H         11.26200       18.89900       19.94200
H         11.84700       19.95300       21.04800
C         10.09600       18.82200       21.65300
C          9.53400       17.47500       21.76000
H         10.14900       19.27100       22.76500
H         10.13500       16.71800       22.36400
H          9.38800       17.07600       20.71500
O          9.22000       19.65200       20.90600
H          8.74100       20.12800       21.59200
C          8.13500       17.46000       22.37200
H          7.83000       16.43300       22.37000
H          7.48700       18.05800       21.76300
H          8.19400       17.83700       23.38900


