%chk=C10H24O2_pair_032_056.chk
%nproc=8
%mem=8000Mb
#p opt b3lyp/6-31G**

Conformer number 324. Energy MM = 0.000 kcal/mol

0 1
H          7.96400        8.05900       22.05000
C          8.40700        8.92400       22.63100
C          7.77500       10.31400       22.38900
H          8.23100        8.78600       23.71200
H          9.51400        8.98400       22.52200
H          6.73600       10.16100       22.13600
H          8.29300       10.75600       21.48900
C          7.91000       11.24400       23.45500
C          7.20200       12.49100       23.19500
H          7.38500       10.78600       24.28500
H          6.16800       12.23700       22.99700
H          7.60800       12.95200       22.27500
O          9.26100       11.53200       23.64000
H          9.65700       10.80300       24.13800
C          7.39000       13.52800       24.32000
H          8.42600       13.85900       24.41100
H          6.97700       13.13100       25.21300
H          6.77500       14.46300       24.09300
H         12.74100        9.42200       23.38300
C         12.68000        8.63600       24.15200
C         12.46700        9.32800       25.49400
H         11.81600        7.91700       24.03700
H         13.64500        8.07300       24.14700
H         13.46500        9.85000       25.84600
H         12.32100        8.57000       26.33300
C         11.37300       10.24300       25.72700
C         11.33900       10.57400       27.16700
H         11.45300       11.20900       25.19300
H         11.41300        9.68400       27.86200
H         10.42400       11.10200       27.42100
O         10.11900        9.62000       25.42800
H         10.09500        8.78500       25.91300
C         12.38500       11.62300       27.52400
H         13.44200       11.33100       27.39700
H         12.42200       11.83200       28.57200
H         12.17100       12.50000       26.93800


