%chk=C10H24O2_pair_045_079.chk
%nproc=8
%mem=8000Mb
#p opt b3lyp/6-31G**

Conformer number 429. Energy MM = 0.000 kcal/mol

0 1
H         18.88600        2.67900       16.54000
C         18.53000        3.70500       16.82000
C         19.28900        4.80000       16.02200
H         17.46400        3.83100       16.45800
H         18.49800        3.90300       17.93500
H         19.05700        4.69300       14.97000
H         20.36200        4.76900       16.16600
C         18.88500        6.21700       16.29900
C         19.54800        7.14000       15.41100
H         17.82400        6.34800       16.02300
H         19.16800        6.89800       14.37600
H         20.62500        6.82600       15.37500
O         18.94900        6.47900       17.70900
H         19.84900        6.26200       17.95100
C         19.31400        8.58900       15.69100
H         19.48300        8.75600       16.78500
H         18.23800        8.82600       15.44400
H         19.91300        9.30900       15.06400
H         23.41900       10.39600       10.91800
C         23.33400        9.46300       11.48000
C         21.79400        9.29600       11.59800
H         23.59600        8.58700       10.79000
H         24.02100        9.48200       12.27700
H         21.54900        8.31300       12.04000
H         21.41500        9.18800       10.57500
C         21.07600       10.25700       12.38300
C         19.66900        9.92200       12.41900
H         21.39500       10.31900       13.45200
H         19.24400       10.48000       13.26100
H         19.50300        8.85500       12.76900
O         21.36000       11.54800       11.84100
H         20.81100       12.12300       12.40700
C         18.88000       10.17700       11.12900
H         17.82700        9.95000       11.40300
H         19.10200        9.49000       10.36800
H         18.83400       11.20300       10.73300


