%chk=C10H24O2_pair_025_094.chk
%nproc=8
%mem=8000Mb
#p opt b3lyp/6-31G**

Conformer number 264. Energy MM = 0.000 kcal/mol

0 1
H         25.72800       15.69600       13.03600
C         25.00500       15.99900       12.31700
C         25.24100       15.23700       11.00800
H         24.09100       15.60900       12.67300
H         25.11800       17.06300       12.17700
H         25.10000       14.24400       11.40600
H         26.33000       15.23100       10.75000
C         24.32000       15.53000        9.95400
C         22.98600       15.98700       10.30300
H         24.65200       16.36600        9.23800
H         22.95400       16.93900       10.88700
H         22.50600       15.29100       11.06400
O         24.28700       14.46700        9.04800
H         23.50800       13.96500        9.21300
C         22.07600       16.12000        9.13000
H         21.06100       16.41900        9.54100
H         21.86100       15.18600        8.67700
H         22.49900       16.88600        8.35500
H         23.03800       13.46800       12.92900
C         23.72900       13.34800       13.82200
C         23.69800       11.92400       14.38900
H         24.77900       13.71100       13.57000
H         23.25400       14.13500       14.55700
H         24.04100       11.25300       13.59600
H         22.60900       11.70000       14.63200
C         24.57300       11.69600       15.55300
C         24.68100       10.29400       15.92400
H         25.63300       12.09600       15.28800
H         25.03900        9.61000       15.10700
H         23.58200        9.95400       15.87900
O         24.08000       12.50600       16.65700
H         24.77900       12.86300       17.23600
C         25.43400        9.97500       17.28200
H         25.49900        8.94500       17.61000
H         25.07000       10.50200       18.15500
H         26.50200       10.34900       17.15000


