%chk=C10H24O2_pair_008_013.chk
%nproc=8
%mem=8000Mb
#p opt b3lyp/6-31G**

Conformer number 093. Energy MM = 0.000 kcal/mol

0 1
H         19.48700        1.80800        8.37300
C         20.53800        2.08400        8.45600
C         21.30900        0.91500        8.96700
H         20.88900        2.48600        7.42000
H         20.63200        2.96900        9.09100
H         21.32100        0.18600        8.13800
H         20.81400        0.45400        9.79300
C         22.65800        1.29300        9.29900
C         23.46200        0.06300        9.48500
H         23.09400        1.85400        8.40400
H         24.44000        0.37200        9.83600
H         23.59000       -0.36000        8.45700
O         22.77400        2.08100       10.44800
H         22.39900        2.94100       10.19400
C         22.90500       -0.87600       10.43300
H         23.73800       -1.55100       10.67700
H         22.03800       -1.42700        9.96700
H         22.70500       -0.42200       11.38000
H         21.36300        0.78700       19.49200
C         20.69700        0.88100       18.68700
C         20.71100       -0.22100       17.63500
H         19.73400        0.84100       19.22800
H         20.75900        1.84700       18.14900
H         19.80500        0.04600       17.16400
H         20.63800       -1.23600       18.04000
C         21.85300       -0.13100       16.73200
C         21.69900       -0.94100       15.42800
H         21.89200        0.90500       16.46300
H         20.99200       -0.43900       14.74600
H         21.33100       -2.02300       15.63700
O         23.10600       -0.32800       17.38400
H         23.00600       -1.27500       17.53000
C         23.00700       -1.11200       14.68400
H         22.84800       -1.48000       13.70600
H         23.65400       -1.83500       15.11100
H         23.56700       -0.16200       14.62500


