%chk=C10H24O2_pair_067_093.chk
%nproc=8
%mem=8000Mb
#p opt b3lyp/6-31G**

Conformer number 540. Energy MM = 0.000 kcal/mol

0 1
H          7.87500        1.16800       20.95800
C          7.07700        0.61000       20.42100
C          5.86600        1.45100       19.95500
H          7.51900        0.07100       19.55200
H          6.64100       -0.12400       21.10100
H          5.50900        2.07600       20.80700
H          5.03400        0.79300       19.86300
C          5.90700        2.26100       18.78000
C          6.02900        1.56100       17.49700
H          4.98500        2.86600       18.77900
H          5.43800        0.64900       17.37700
H          7.12100        1.23300       17.35000
O          7.07200        3.11600       18.88400
H          6.93100        3.44400       19.73000
C          5.74500        2.52400       16.37900
H          5.70900        2.22600       15.35200
H          6.50300        3.30800       16.44900
H          4.77500        2.95900       16.58500
H          8.95700       -5.29700       11.97900
C          8.04900       -4.67800       11.76400
C          7.96500       -3.60500       12.88300
H          8.19600       -4.10600       10.90800
H          7.26900       -5.41000       11.57000
H          8.71900       -2.85100       12.71500
H          8.14400       -4.04000       13.91300
C          6.74100       -2.82100       12.92200
C          6.70700       -1.77100       13.95900
H          6.55300       -2.42600       11.93000
H          7.71800       -1.32100       14.17300
H          6.36900       -2.24300       14.86600
O          5.60000       -3.71100       13.09200
H          5.51700       -3.89300       14.00100
C          5.61200       -0.69000       13.70400
H          5.43900        0.00700       14.58000
H          4.68200       -1.21700       13.54800
H          5.71900        0.00700       12.87400


