%chk=C10H24O2_pair_026_070.chk
%nproc=8
%mem=8000Mb
#p opt b3lyp/6-31G**

Conformer number 273. Energy MM = 0.000 kcal/mol

0 1
H          6.34900       22.80300       26.44900
C          6.75100       22.74700       25.43600
C          8.11000       22.05000       25.35800
H          6.14200       22.24300       24.76600
H          6.93800       23.80100       25.03600
H          8.03100       21.07800       25.85500
H          8.79100       22.63300       25.98300
C          8.63600       21.78400       24.03100
C          8.80000       22.97800       23.28200
H          9.65100       21.23700       24.07200
H          9.60600       23.54400       23.78100
H          7.93500       23.59100       23.27800
O          7.75600       20.94200       23.19100
H          6.84900       20.87700       23.51400
C          9.31900       22.75100       21.84400
H         10.21200       22.13900       21.79300
H          9.53900       23.73000       21.35800
H          8.50800       22.27500       21.24200
H          9.33800       22.45200       19.03400
C          8.62800       22.05300       18.40100
C          9.21200       21.34100       17.16200
H          8.02300       21.44100       19.05000
H          8.01800       22.84000       17.96500
H          9.89100       22.05500       16.64500
H          8.42500       21.18400       16.37900
C          9.95900       20.09500       17.31800
C         10.10000       19.60500       15.94800
H         10.96600       20.17300       17.72400
H          9.08900       19.38900       15.52300
H         10.51500       18.60500       16.05400
O          9.25200       19.17200       18.14000
H          9.32700       19.52900       19.02200
C         10.90400       20.40200       14.94000
H         11.07500       19.80100       14.00500
H         11.92600       20.62400       15.35000
H         10.37100       21.34200       14.68200


