%chk=C10H24O2_pair_056_078.chk
%nproc=8
%mem=8000Mb
#p opt b3lyp/6-31G**

Conformer number 487. Energy MM = 0.000 kcal/mol

0 1
H         12.74100        9.42200       -1.07900
C         12.68000        8.63600       -0.31000
C         12.46700        9.32800        1.03200
H         11.81600        7.91700       -0.42500
H         13.64500        8.07300       -0.31500
H         13.46500        9.85000        1.38400
H         12.32100        8.57000        1.87100
C         11.37300       10.24300        1.26500
C         11.33900       10.57400        2.70500
H         11.45300       11.20900        0.73100
H         11.41300        9.68400        3.40000
H         10.42400       11.10200        2.95900
O         10.11900        9.62000        0.96600
H         10.09500        8.78500        1.45100
C         12.38500       11.62300        3.06200
H         13.44200       11.33100        2.93500
H         12.42200       11.83200        4.11000
H         12.17100       12.50000        2.47600
H         17.02100        4.41500        1.84800
C         17.49500        5.40600        1.85900
C         16.41200        6.53400        1.91100
H         18.21200        5.56500        2.68000
H         18.07600        5.40900        0.89700
H         15.62400        6.32500        1.10900
H         16.87000        7.52600        1.78100
C         15.58300        6.64100        3.15200
C         14.42800        7.50300        2.97600
H         15.19600        5.64200        3.34200
H         13.71000        6.99200        2.23200
H         14.72200        8.41900        2.52500
O         16.43400        6.90300        4.25600
H         16.00500        6.70300        5.07300
C         13.72700        7.88400        4.28100
H         12.98100        8.69500        4.14000
H         14.41500        8.19800        5.06700
H         13.20100        6.98000        4.59800


