%chk=C10H24O2_pair_002_075.chk
%nproc=8
%mem=8000Mb
#p opt b3lyp/6-31G**

Conformer number 032. Energy MM = 0.000 kcal/mol

0 1
H         22.43700       20.29800       10.86400
C         22.75800       20.08000        9.82200
C         21.79600       20.58700        8.74700
H         23.79600       20.42400        9.67500
H         22.74100       18.94300        9.83700
H         21.93800       21.61100        8.44500
H         20.80700       20.47200        9.17600
C         21.77300       19.71800        7.56400
C         22.97900       19.84100        6.81400
H         21.74000       18.69200        7.88300
H         23.92500       19.82300        7.46100
H         22.86700       20.68300        6.10100
O         20.60400       19.77900        6.67500
H         20.68100       20.54200        6.10600
C         23.26900       18.67300        5.80400
H         22.46100       18.66200        5.04000
H         23.19800       17.72100        6.32600
H         24.30200       18.87100        5.38000
H         25.11800       23.14800       13.12200
C         25.46300       22.09400       12.81500
C         26.92100       22.06600       12.34900
H         25.27200       21.45600       13.73500
H         24.73400       21.81100       12.07000
H         27.55100       21.63500       13.17700
H         27.37600       23.06800       12.18800
C         27.12900       21.17700       11.16900
C         26.67300       19.79100       11.35100
H         26.54200       21.63700       10.39100
H         25.66000       19.68200       11.69500
H         27.34300       19.38800       12.18000
O         28.49000       21.12700       10.87300
H         28.93100       20.80400       11.69600
C         26.72100       18.75000       10.15600
H         26.47100       17.76700       10.69500
H         27.67400       18.86200        9.62600
H         25.97000       18.83600        9.36400


