%chk=C10H24O2_pair_036_043.chk
%nproc=8
%mem=8000Mb
#p opt b3lyp/6-31G**

Conformer number 353. Energy MM = 0.000 kcal/mol

0 1
H         15.86800        5.45700       23.97600
C         15.07300        5.46000       23.20900
C         14.92300        4.13900       22.44600
H         14.09800        5.72200       23.64200
H         15.35700        6.31500       22.60900
H         15.70300        4.03600       21.65500
H         14.00500        4.24700       21.84700
C         14.81000        2.90600       23.25200
C         15.87400        2.65400       24.29300
H         13.84300        3.03300       23.78200
H         15.58400        3.37800       25.05700
H         16.86300        2.96200       23.89900
O         14.63600        1.84300       22.33800
H         14.35400        1.08500       22.86200
C         15.93600        1.29000       24.81600
H         14.92700        0.96600       25.15800
H         16.70600        1.04400       25.53500
H         16.14000        0.63500       23.92100
H         13.71900        6.77500       18.50100
C         14.14000        5.99300       19.12700
C         15.67000        6.02400       19.18100
H         13.81400        6.21500       20.16600
H         13.61000        5.15100       18.79000
H         16.15300        5.63100       18.26300
H         15.97500        5.29300       19.95100
C         16.23800        7.34600       19.47300
C         16.18200        8.27900       18.36500
H         15.75700        7.70700       20.38500
H         15.09600        8.50500       18.15200
H         16.77700        7.81000       17.56000
O         17.59400        7.20200       20.05100
H         18.05300        7.11400       19.17300
C         16.80600        9.63900       18.58500
H         17.87100        9.50300       18.91100
H         16.32300       10.12900       19.43900
H         16.81600       10.25600       17.71600


