%chk=C10H24O2_pair_080_090.chk
%nproc=8
%mem=8000Mb
#p opt b3lyp/6-31G**

Conformer number 580. Energy MM = 0.000 kcal/mol

0 1
H          9.44700        3.41500        6.17600
C         10.53800        3.38900        6.40800
C         11.34700        4.16800        5.43600
H         10.68400        3.91200        7.39300
H         10.96600        2.41200        6.68300
H         12.43800        4.05100        5.71300
H         11.28400        5.28700        5.52700
C         11.23500        3.92400        3.97800
C         12.16100        4.69000        3.17300
H         11.41700        2.76200        3.73300
H         13.22600        4.49900        3.52800
H         11.82000        5.79400        3.32500
O          9.95100        4.33300        3.44400
H          9.31900        3.80400        3.92700
C         12.08700        4.19700        1.71900
H         12.79600        4.82000        1.04300
H         11.00300        4.36900        1.39300
H         12.35800        3.20000        1.71700
H          7.76300        6.73900        0.20300
C          6.97100        7.06500        0.90800
C          7.34000        7.97100        2.12400
H          6.25000        7.63600        0.35200
H          6.37900        6.10800        1.23400
H          6.43700        7.99000        2.81900
H          7.37500        9.06300        1.92200
C          8.42200        7.51100        2.88700
C          8.64500        8.17500        4.14200
H          8.04100        6.52800        3.17200
H          7.62400        8.21200        4.71600
H          8.96900        9.20000        3.90400
O          9.61700        7.31600        2.16500
H          9.91400        6.51900        2.62300
C          9.63200        7.45500        5.12100
H         10.67400        7.63600        4.81900
H          9.35800        6.44500        5.16200
H          9.41100        7.80800        6.11000


