%chk=C10H24O2_pair_069_071.chk
%nproc=8
%mem=8000Mb
#p opt b3lyp/6-31G**

Conformer number 548. Energy MM = 0.000 kcal/mol

0 1
H         14.07600        9.77300        7.00600
C         13.33500       10.37000        6.43500
C         11.94700        9.76900        6.89000
H         13.45600       11.42400        6.68900
H         13.49700       10.30300        5.32600
H         11.83100        8.73300        6.50500
H         11.20700       10.36200        6.43400
C         11.72700        9.79200        8.37400
C         10.51200        9.08800        8.70200
H         12.58300        9.28300        8.82400
H          9.65100        9.47000        8.14600
H         10.30200        9.21800        9.80000
O         11.64800       11.10900        8.85800
H         12.54100       11.43800        8.80100
C         10.67000        7.57900        8.59900
H         10.70100        7.12600        7.51700
H          9.83300        7.15100        9.13100
H         11.62300        7.30000        9.08200
H          2.20300        7.36400       12.83200
C          2.89400        7.21000       11.92200
C          4.22900        8.08400       11.92200
H          3.08500        6.08800       11.99900
H          2.27200        7.45600       10.94900
H          4.76600        7.93900       12.86200
H          3.94800        9.12500       12.05600
C          5.23600        7.82300       10.88600
C          6.34500        8.73000       11.03400
H          5.60800        6.76500       11.11100
H          6.45800        8.86900       12.08800
H          6.13400        9.70100       10.72600
O          4.71400        7.73300        9.57000
H          4.28900        8.60300        9.41100
C          7.58800        8.21700       10.28000
H          7.38900        8.28600        9.20400
H          7.98600        7.20300       10.55500
H          8.34800        9.02100       10.51400


