%chk=C10H24O2_pair_003_060.chk
%nproc=8
%mem=8000Mb
#p opt b3lyp/6-31G**

Conformer number 043. Energy MM = 0.000 kcal/mol

0 1
H         19.99400        1.66500       12.36000
C         19.77900        2.69000       12.56500
C         18.94600        3.30900       11.42700
H         19.30200        2.74700       13.54400
H         20.75500        3.22300       12.63000
H         19.64000        3.62700       10.63900
H         18.38500        4.15800       11.81700
C         18.00700        2.38600       10.86000
C         17.32400        2.92900        9.74000
H         18.60900        1.47200       10.55400
H         18.05500        3.38700        9.14300
H         16.54600        3.63600       10.08700
O         17.03800        2.13600       11.83500
H         16.69600        3.01900       12.02500
C         16.72300        1.91300        8.73300
H         16.10000        2.45200        7.98900
H         16.01800        1.24600        9.23600
H         17.52900        1.31400        8.13500
H         19.28800        5.79900        9.92400
C         19.87400        6.62400        9.54300
C         21.19400        6.23900        8.88700
H         19.25300        7.06100        8.75600
H         19.97800        7.41400       10.33700
H         21.46400        7.15200        8.29400
H         20.91400        5.46300        8.12600
C         22.36400        5.81500        9.64100
C         23.51500        5.39500        8.81600
H         22.67700        6.68400       10.28000
H         23.22200        4.71800        8.00300
H         24.23300        4.84100        9.45700
O         21.96500        4.73800       10.45500
H         22.65900        4.79400       11.15800
C         24.34800        6.54600        8.25100
H         23.78600        7.22000        7.63900
H         25.12700        6.21400        7.62800
H         24.87100        7.18400        8.96000


