%chk=C10H24O2_pair_028_056.chk
%nproc=8
%mem=8000Mb
#p opt b3lyp/6-31G**

Conformer number 290. Energy MM = 0.000 kcal/mol

0 1
H         10.04500       13.26300        3.68000
C          9.60900       14.11800        3.07600
C          8.71000       15.07300        3.94600
H         10.53200       14.69700        2.82800
H          9.20900       13.72700        2.08800
H          9.13500       15.29400        4.95400
H          7.78400       14.52900        4.18500
C          8.34300       16.37800        3.39000
C          7.67800       16.41600        2.06800
H          7.58400       16.79800        4.02600
H          6.67000       15.96200        2.13800
H          8.32200       16.02500        1.28400
O          9.45200       17.28400        3.29600
H          9.30800       18.03400        3.93100
C          7.42300       17.86800        1.71800
H          8.25300       18.34400        1.16000
H          7.29100       18.43800        2.72300
H          6.54100       18.05700        1.19200
H         12.74100        9.42200       -1.07900
C         12.68000        8.63600       -0.31000
C         12.46700        9.32800        1.03200
H         11.81600        7.91700       -0.42500
H         13.64500        8.07300       -0.31500
H         13.46500        9.85000        1.38400
H         12.32100        8.57000        1.87100
C         11.37300       10.24300        1.26500
C         11.33900       10.57400        2.70500
H         11.45300       11.20900        0.73100
H         11.41300        9.68400        3.40000
H         10.42400       11.10200        2.95900
O         10.11900        9.62000        0.96600
H         10.09500        8.78500        1.45100
C         12.38500       11.62300        3.06200
H         13.44200       11.33100        2.93500
H         12.42200       11.83200        4.11000
H         12.17100       12.50000        2.47600


