%chk=C10H24O2_pair_040_060.chk
%nproc=8
%mem=8000Mb
#p opt b3lyp/6-31G**

Conformer number 390. Energy MM = 0.000 kcal/mol

0 1
H         18.01100       13.71500        7.77500
C         18.96500       13.07600        7.49200
C         19.99200       13.08300        8.55600
H         18.67600       12.04700        7.28700
H         19.28900       13.56300        6.58000
H         19.58600       12.60700        9.43100
H         20.14500       14.06700        8.99500
C         21.25900       12.48900        8.22600
C         21.10000       11.11800        7.86100
H         21.63200       13.00400        7.38100
H         20.61200       11.10700        6.87000
H         20.42300       10.64300        8.56200
O         22.25200       12.70800        9.25600
H         21.91800       12.31500       10.09100
C         22.36700       10.21400        7.59900
H         23.07300       10.52400        6.84200
H         22.97300        9.96800        8.48100
H         22.03000        9.20600        7.35900
H         19.28800        5.79900        9.92400
C         19.87400        6.62400        9.54300
C         21.19400        6.23900        8.88700
H         19.25300        7.06100        8.75600
H         19.97800        7.41400       10.33700
H         21.46400        7.15200        8.29400
H         20.91400        5.46300        8.12600
C         22.36400        5.81500        9.64100
C         23.51500        5.39500        8.81600
H         22.67700        6.68400       10.28000
H         23.22200        4.71800        8.00300
H         24.23300        4.84100        9.45700
O         21.96500        4.73800       10.45500
H         22.65900        4.79400       11.15800
C         24.34800        6.54600        8.25100
H         23.78600        7.22000        7.63900
H         25.12700        6.21400        7.62800
H         24.87100        7.18400        8.96000


