%chk=C10H24O2_pair_052_068.chk
%nproc=8
%mem=8000Mb
#p opt b3lyp/6-31G**

Conformer number 465. Energy MM = 0.000 kcal/mol

0 1
H          5.38300       16.75900       22.63500
C          4.75700       17.38200       23.31000
C          3.40000       17.82000       22.77900
H          4.59200       16.68600       24.17700
H          5.35300       18.23900       23.65400
H          2.94900       17.13300       22.06600
H          3.43700       18.71500       22.23700
C          2.44800       18.23000       23.87900
C          1.06800       18.22900       23.52100
H          2.55200       17.57200       24.73500
H          0.51900       18.59900       24.41100
H          0.73600       17.18100       23.44100
O          2.85400       19.52900       24.36300
H          2.24400       19.66600       25.07700
C          0.51700       18.94400       22.25600
H          0.79600       20.07000       22.34500
H         -0.62300       18.68500       22.18700
H          1.04500       18.63400       21.29700
H          3.07600       16.26600       20.28000
C          2.53400       16.61900       19.47400
C          2.39800       15.57700       18.37600
H          3.10900       17.46500       19.12800
H          1.58000       17.10200       19.86400
H          3.40900       15.35100       18.18700
H          1.80700       15.88900       17.52800
C          1.75500       14.36900       18.88500
C          0.34300       14.43700       19.37400
H          2.39300       13.92800       19.67100
H         -0.22600       14.73300       18.50800
H          0.11000       15.23100       20.10700
O          1.77800       13.31300       17.84800
H          2.70000       13.28500       17.50300
C         -0.17000       13.01700       19.91900
H          0.25700       12.66400       20.85900
H          0.04200       12.23100       19.20800
H         -1.25400       12.90500       20.10000


