%chk=C10H24O2_pair_001_015.chk
%nproc=8
%mem=8000Mb
#p opt b3lyp/6-31G**

Conformer number 012. Energy MM = 0.000 kcal/mol

0 1
H         15.44800       12.97300       17.13200
C         15.79600       12.90600       18.11800
C         15.40400       14.17100       18.92200
H         15.14500       12.12200       18.50300
H         16.78800       12.61400       18.20000
H         15.60000       13.89900       19.98900
H         14.31100       14.39400       18.79000
C         16.11100       15.32100       18.49100
C         15.84500       16.63600       19.19500
H         17.19700       15.07300       18.62700
H         15.78500       16.48600       20.25100
H         14.85000       17.02100       18.92300
O         15.97100       15.61000       17.10900
H         16.32800       16.49800       16.89100
C         17.04400       17.72700       19.04200
H         17.03600       18.57200       19.65100
H         17.07300       18.10200       18.03400
H         17.95000       17.14600       19.34800
H         19.97000       10.36900       18.23100
C         20.01300       11.29400       17.64300
C         21.09900       12.18800       18.12300
H         20.34700       11.08000       16.60300
H         18.97400       11.62600       17.65800
H         22.15600       11.75400       18.10600
H         20.94700       12.47800       19.19700
C         21.21300       13.46300       17.45200
C         19.99600       14.24500       17.57700
H         22.07600       14.07400       17.82100
H         19.89200       14.44500       18.69000
H         19.10300       13.74900       17.23200
O         21.39500       13.24400       16.04700
H         22.21800       12.82100       16.10300
C         20.08700       15.59300       16.90200
H         19.20300       16.22500       17.03500
H         20.29700       15.46100       15.85900
H         20.82200       16.14900       17.35100


