%chk=C10H24O2_pair_007_091.chk
%nproc=8
%mem=8000Mb
#p opt b3lyp/6-31G**

Conformer number 090. Energy MM = 0.000 kcal/mol

0 1
H         22.93600        0.29600       -1.74400
C         23.63700        0.37400       -0.87600
C         23.09300        1.34700        0.17700
H         23.76600       -0.56100       -0.39100
H         24.65400        0.60800       -1.41100
H         23.43300        2.36100       -0.03900
H         23.52400        1.15900        1.12900
C         21.66200        1.28300        0.28500
C         21.15800        2.28500        1.21100
H         21.32600        1.47000       -0.75100
H         21.54500        3.30200        0.86700
H         21.69200        2.09100        2.15500
O         21.18300        0.01300        0.60600
H         21.62300       -0.62000        0.02700
C         19.65500        2.24600        1.32200
H         19.20800        2.56200        0.32000
H         19.35700        2.99200        2.10500
H         19.21200        1.19500        1.55800
H         22.05300       -0.96200       -3.27600
C         22.29700       -1.98400       -3.62500
C         23.78700       -2.00400       -4.15600
H         22.09600       -2.74200       -2.86200
H         21.53400       -2.03500       -4.47300
H         24.32700       -2.06800       -3.19300
H         24.01900       -1.02200       -4.65900
C         24.13900       -3.10200       -5.06400
C         25.51300       -3.33800       -5.47400
H         23.84500       -3.99400       -4.48400
H         26.25000       -3.38300       -4.55200
H         25.78800       -2.43400       -6.05300
O         23.35500       -2.99200       -6.25700
H         22.71500       -3.71600       -6.41500
C         25.51400       -4.66200       -6.22200
H         25.12100       -5.44700       -5.48800
H         26.51600       -4.98100       -6.55500
H         24.87600       -4.64500       -7.14800


