%chk=C10H24O2_pair_054_096.chk
%nproc=8
%mem=8000Mb
#p opt b3lyp/6-31G**

Conformer number 476. Energy MM = 0.000 kcal/mol

0 1
H         22.93300        5.63100       22.16200
C         22.98900        4.55000       22.37700
C         21.69700        3.95800       21.76900
H         23.87800        4.28700       21.84800
H         23.12300        4.44200       23.48900
H         21.76600        2.91500       22.03500
H         21.78900        4.00300       20.63200
C         20.48900        4.66400       22.19300
C         19.24300        4.01100       21.81300
H         20.49300        4.79200       23.38800
H         18.36400        4.52300       22.22100
H         19.13200        3.05100       22.32700
O         20.43200        6.00800       21.65700
H         19.60900        6.41500       21.97900
C         19.02900        3.81600       20.22200
H         18.68900        4.73600       19.69400
H         18.16800        3.04800       20.06000
H         19.93400        3.46100       19.72000
H         13.80000        1.60500       18.68600
C         14.40000        2.25500       18.01400
C         15.60900        2.56500       18.86900
H         14.56900        1.66200       17.15400
H         13.92500        3.22300       17.70000
H         15.22900        3.19900       19.67200
H         16.33000        3.14500       18.23800
C         16.13100        1.32600       19.46700
C         16.74800        0.38000       18.59000
H         16.87800        1.61800       20.24200
H         17.62700        0.83200       17.96900
H         16.01200        0.02500       17.78800
O         15.03400        0.72300       20.13700
H         14.70300        1.40700       20.79600
C         17.37400       -0.71900       19.42300
H         18.19800       -0.30300       20.00800
H         17.80800       -1.59200       18.91200
H         16.69700       -1.21700       20.17800


