%chk=C10H24O2_pair_027_060.chk
%nproc=8
%mem=8000Mb
#p opt b3lyp/6-31G**

Conformer number 282. Energy MM = 0.000 kcal/mol

0 1
H         20.57400        4.45600        5.43800
C         21.35300        3.93400        4.85200
C         22.59900        3.90600        5.78200
H         20.99200        2.89000        4.54800
H         21.65200        4.54200        3.95100
H         22.44000        3.46500        6.74700
H         22.86400        4.97300        5.89300
C         23.73300        3.18500        5.17800
C         24.85100        2.90300        6.10300
H         23.36700        2.14800        4.92500
H         24.40700        2.19700        6.84400
H         25.26200        3.75400        6.71700
O         24.07300        3.95800        3.96800
H         24.64900        3.51800        3.35900
C         26.08500        2.24900        5.38400
H         26.33700        2.89400        4.58800
H         25.68400        1.33300        4.98900
H         26.88700        2.09800        5.99900
H         19.28800        5.79900        9.92400
C         19.87400        6.62400        9.54300
C         21.19400        6.23900        8.88700
H         19.25300        7.06100        8.75600
H         19.97800        7.41400       10.33700
H         21.46400        7.15200        8.29400
H         20.91400        5.46300        8.12600
C         22.36400        5.81500        9.64100
C         23.51500        5.39500        8.81600
H         22.67700        6.68400       10.28000
H         23.22200        4.71800        8.00300
H         24.23300        4.84100        9.45700
O         21.96500        4.73800       10.45500
H         22.65900        4.79400       11.15800
C         24.34800        6.54600        8.25100
H         23.78600        7.22000        7.63900
H         25.12700        6.21400        7.62800
H         24.87100        7.18400        8.96000


