%chk=C10H24O2_pair_041_097.chk
%nproc=8
%mem=8000Mb
#p opt b3lyp/6-31G**

Conformer number 403. Energy MM = 0.000 kcal/mol

0 1
H         16.23400       15.33000       10.90200
C         15.45300       14.60500       11.19500
C         15.71400       13.26100       10.44400
H         15.37400       14.63200       12.29600
H         14.56000       15.08500       10.85100
H         16.74300       12.92200       10.82000
H         15.88300       13.50800        9.37500
C         14.61700       12.29700       10.60400
C         14.92000       10.86600       10.40700
H         14.25800       12.37400       11.62900
H         13.99800       10.31600       10.45200
H         15.62400       10.55000       11.25700
O         13.48000       12.64700        9.78400
H         13.17700       13.49900       10.06500
C         15.64500       10.53700        9.12200
H         16.44600       11.25500        8.90400
H         14.96800       10.68700        8.32900
H         16.15600        9.56900        9.12300
H         15.76200       16.56800       14.49700
C         15.54100       17.19900       13.63900
C         15.68900       18.59200       14.16000
H         16.13600       16.96700       12.73600
H         14.51800       16.98900       13.36000
H         15.51700       19.29000       13.29000
H         16.77300       18.73300       14.37300
C         14.85300       19.04200       15.26000
C         14.92800       20.40700       15.77400
H         13.74500       18.99900       14.89400
H         14.29600       20.36600       16.65100
H         14.31700       21.08400       15.19000
O         14.97700       18.27100       16.45800
H         14.30700       17.59200       16.42800
C         16.28300       20.89600       16.24800
H         16.78200       20.00600       16.65100
H         16.45100       21.58300       17.09500
H         16.84400       21.22200       15.40100


