%chk=C10H24O2_pair_008_010.chk
%nproc=8
%mem=8000Mb
#p opt b3lyp/6-31G**

Conformer number 092. Energy MM = 0.000 kcal/mol

0 1
H         19.48700        1.80800        8.37300
C         20.53800        2.08400        8.45600
C         21.30900        0.91500        8.96700
H         20.88900        2.48600        7.42000
H         20.63200        2.96900        9.09100
H         21.32100        0.18600        8.13800
H         20.81400        0.45400        9.79300
C         22.65800        1.29300        9.29900
C         23.46200        0.06300        9.48500
H         23.09400        1.85400        8.40400
H         24.44000        0.37200        9.83600
H         23.59000       -0.36000        8.45700
O         22.77400        2.08100       10.44800
H         22.39900        2.94100       10.19400
C         22.90500       -0.87600       10.43300
H         23.73800       -1.55100       10.67700
H         22.03800       -1.42700        9.96700
H         22.70500       -0.42200       11.38000
H         27.05000        3.91500       12.36700
C         27.94800        3.27800       12.62100
C         27.41700        1.81900       12.82900
H         28.66500        3.39200       11.73800
H         28.40500        3.60800       13.49500
H         26.65500        1.72700       13.58700
H         28.23000        1.24100       13.05400
C         26.69500        1.34400       11.65200
C         27.47800        1.19000       10.40400
H         26.28100        0.36000       11.96000
H         28.26000        0.38400       10.58700
H         28.03300        2.09700       10.18200
O         25.54100        2.17900       11.60000
H         24.93800        1.69300       10.96100
C         26.68700        0.72600        9.17300
H         25.86900        1.44700        8.92900
H         26.38100       -0.28600        9.25600
H         27.33600        0.63400        8.34300


