%chk=C10H24O2_pair_014_051.chk
%nproc=8
%mem=8000Mb
#p opt b3lyp/6-31G**

Conformer number 153. Energy MM = 0.000 kcal/mol

0 1
H         18.47000       25.28300       21.85000
C         19.05300       24.53700       22.41800
C         18.38700       23.12200       22.56300
H         20.06100       24.49800       21.90800
H         19.22400       25.02000       23.39600
H         18.19200       22.59700       21.60700
H         17.43700       23.31300       23.10700
C         19.15500       22.28400       23.49600
C         18.75000       20.88300       23.65600
H         20.19100       22.39300       23.26200
H         17.63400       20.79400       23.71800
H         19.17800       20.47600       24.68000
O         18.96500       22.88600       24.81300
H         19.30200       23.74400       24.67400
C         19.21600       20.06400       22.46500
H         20.27900       19.93500       22.51100
H         19.04000       20.68500       21.57800
H         18.70300       19.13100       22.35900
H         22.09300       20.56200       23.44200
C         22.78300       20.69300       24.27600
C         22.08300       20.98500       25.61600
H         23.24200       19.71700       24.31400
H         23.60600       21.44400       24.00100
H         21.33500       20.22000       25.78800
H         21.59900       21.95000       25.65600
C         22.95600       21.05600       26.86900
C         24.00600       22.07800       26.79200
H         22.37100       21.47100       27.74400
H         23.48200       23.02900       26.64500
H         24.82000       21.92000       26.04900
O         23.51800       19.80500       27.28600
H         22.80500       19.20700       27.36600
C         24.75600       22.20900       28.19300
H         25.34700       23.13900       28.22100
H         25.45900       21.32800       28.39700
H         24.09600       22.47200       29.05200


