%chk=C10H24O2_pair_052_062.chk
%nproc=8
%mem=8000Mb
#p opt b3lyp/6-31G**

Conformer number 464. Energy MM = 0.000 kcal/mol

0 1
H          5.38300       16.75900       22.63500
C          4.75700       17.38200       23.31000
C          3.40000       17.82000       22.77900
H          4.59200       16.68600       24.17700
H          5.35300       18.23900       23.65400
H          2.94900       17.13300       22.06600
H          3.43700       18.71500       22.23700
C          2.44800       18.23000       23.87900
C          1.06800       18.22900       23.52100
H          2.55200       17.57200       24.73500
H          0.51900       18.59900       24.41100
H          0.73600       17.18100       23.44100
O          2.85400       19.52900       24.36300
H          2.24400       19.66600       25.07700
C          0.51700       18.94400       22.25600
H          0.79600       20.07000       22.34500
H         -0.62300       18.68500       22.18700
H          1.04500       18.63400       21.29700
H         -5.42600       19.39800       17.00600
C         -5.11500       20.33400       17.52400
C         -4.60000       20.01800       18.90100
H         -4.48300       20.96200       16.87400
H         -6.07100       20.90900       17.57700
H         -5.37800       19.66800       19.61200
H         -4.15800       20.89200       19.33300
C         -3.60900       18.90500       18.87800
C         -3.02000       18.41700       20.09800
H         -4.22600       18.02400       18.46700
H         -3.89000       18.09400       20.79200
H         -2.55000       19.35400       20.55800
O         -2.55600       19.34700       18.01900
H         -2.70500       19.07700       17.13000
C         -2.06700       17.18400       19.92200
H         -1.57800       17.01300       20.90400
H         -1.35200       17.35800       19.14000
H         -2.73200       16.28900       19.64400


