%chk=C10H24O2_pair_072_080.chk
%nproc=8
%mem=8000Mb
#p opt b3lyp/6-31G**

Conformer number 560. Energy MM = 0.000 kcal/mol

0 1
H          5.85600        3.60400        3.61100
C          5.97600        3.05400        2.67300
C          6.50000        1.65300        3.03300
H          5.07800        3.04100        2.10600
H          6.75900        3.57400        2.09000
H          6.49300        0.98700        2.15000
H          5.97500        1.17800        3.83400
C          7.87100        1.69000        3.50300
C          8.47100        0.35100        3.65400
H          8.48400        2.27600        2.78000
H          8.61700       -0.07500        2.65500
H          7.68600       -0.23400        4.19700
O          7.99700        2.45000        4.69100
H          7.84300        1.84300        5.41300
C          9.81400        0.26800        4.31300
H         10.20300       -0.74100        4.45800
H          9.64700        0.61500        5.38600
H         10.57800        0.85400        3.78300
H          9.44700        3.41500        6.17600
C         10.53800        3.38900        6.40800
C         11.34700        4.16800        5.43600
H         10.68400        3.91200        7.39300
H         10.96600        2.41200        6.68300
H         12.43800        4.05100        5.71300
H         11.28400        5.28700        5.52700
C         11.23500        3.92400        3.97800
C         12.16100        4.69000        3.17300
H         11.41700        2.76200        3.73300
H         13.22600        4.49900        3.52800
H         11.82000        5.79400        3.32500
O          9.95100        4.33300        3.44400
H          9.31900        3.80400        3.92700
C         12.08700        4.19700        1.71900
H         12.79600        4.82000        1.04300
H         11.00300        4.36900        1.39300
H         12.35800        3.20000        1.71700


