%chk=C10H24O2_pair_002_051.chk
%nproc=8
%mem=8000Mb
#p opt b3lyp/6-31G**

Conformer number 030. Energy MM = 0.000 kcal/mol

0 1
H         22.43700       20.29800       10.86400
C         22.75800       20.08000        9.82200
C         21.79600       20.58700        8.74700
H         23.79600       20.42400        9.67500
H         22.74100       18.94300        9.83700
H         21.93800       21.61100        8.44500
H         20.80700       20.47200        9.17600
C         21.77300       19.71800        7.56400
C         22.97900       19.84100        6.81400
H         21.74000       18.69200        7.88300
H         23.92500       19.82300        7.46100
H         22.86700       20.68300        6.10100
O         20.60400       19.77900        6.67500
H         20.68100       20.54200        6.10600
C         23.26900       18.67300        5.80400
H         22.46100       18.66200        5.04000
H         23.19800       17.72100        6.32600
H         24.30200       18.87100        5.38000
H         22.09300       20.56200       -1.02000
C         22.78300       20.69300       -0.18600
C         22.08300       20.98500        1.15400
H         23.24200       19.71700       -0.14800
H         23.60600       21.44400       -0.46100
H         21.33500       20.22000        1.32600
H         21.59900       21.95000        1.19400
C         22.95600       21.05600        2.40700
C         24.00600       22.07800        2.33000
H         22.37100       21.47100        3.28200
H         23.48200       23.02900        2.18300
H         24.82000       21.92000        1.58700
O         23.51800       19.80500        2.82400
H         22.80500       19.20700        2.90400
C         24.75600       22.20900        3.73100
H         25.34700       23.13900        3.75900
H         25.45900       21.32800        3.93500
H         24.09600       22.47200        4.59000


