%chk=C10H24O2_pair_012_084.chk
%nproc=8
%mem=8000Mb
#p opt b3lyp/6-31G**

Conformer number 136. Energy MM = 0.000 kcal/mol

0 1
H         16.19600       15.39300        1.80300
C         16.69700       15.55200        2.75800
C         17.45200       14.35400        3.30500
H         17.45100       16.37400        2.60000
H         15.96800       15.91200        3.47300
H         16.75400       13.77600        3.85200
H         18.21700       14.63500        4.06500
C         18.09900       13.51200        2.24300
C         19.06500       12.54500        2.70900
H         17.31900       12.90400        1.76600
H         18.52100       11.77800        3.24100
H         19.73900       12.96200        3.42600
O         18.75800       14.38700        1.26200
H         18.14600       14.53800        0.52400
C         19.82400       11.83200        1.61600
H         20.69700       11.51300        2.20100
H         20.29300       12.53400        0.85600
H         19.39400       10.93600        1.19200
H         18.16300       13.78300       -4.27700
C         18.57900       13.52200       -3.32300
C         18.70500       14.75900       -2.39300
H         18.02800       12.60900       -3.03300
H         19.59300       13.17700       -3.61000
H         19.23500       15.46900       -3.04500
H         19.46300       14.52300       -1.68400
C         17.57600       15.39500       -1.79100
C         18.01900       16.69800       -1.29700
H         16.81200       15.57400       -2.53500
H         18.57400       17.26900       -1.95100
H         18.73100       16.56200       -0.42700
O         17.11200       14.66900       -0.70700
H         16.17100       14.59000       -0.77800
C         16.95500       17.64400       -0.73300
H         16.53400       17.17100        0.19200
H         16.23700       17.75700       -1.50000
H         17.23100       18.64300       -0.36100


