%chk=C10H24O2_pair_029_064.chk
%nproc=8
%mem=8000Mb
#p opt b3lyp/6-31G**

Conformer number 299. Energy MM = 0.000 kcal/mol

0 1
H         12.65800       25.72400       24.33000
C         11.82400       25.12900       24.76000
C         12.25300       23.68300       24.84300
H         11.59000       25.47900       25.73500
H         10.95200       25.36700       24.16100
H         11.54300       23.07100       25.37400
H         13.19800       23.66300       25.43300
C         12.58500       23.11800       23.49900
C         12.91700       21.70100       23.56000
H         11.75700       23.47500       22.77500
H         13.05500       21.31200       22.51500
H         12.05500       21.10400       23.85700
O         13.71400       23.69700       22.91300
H         13.89500       23.12000       22.15800
C         14.17400       21.25000       24.38900
H         13.98600       21.07100       25.41000
H         14.96200       22.06000       24.44800
H         14.64100       20.42000       23.81900
H         12.56400       23.74700       18.39000
C         12.48100       22.75600       17.98700
C         12.93200       21.66400       18.95300
H         11.38500       22.54000       17.77400
H         13.03400       22.60700       17.12900
H         12.86600       20.57200       18.52600
H         12.26200       21.67000       19.84500
C         14.33500       21.82900       19.45600
C         14.81400       20.53300       20.02000
H         14.90900       22.32700       18.72700
H         15.21000       19.95400       19.23200
H         13.98600       20.01200       20.48000
O         14.30600       22.66400       20.61400
H         14.33000       23.63000       20.39100
C         15.99900       20.45600       21.07200
H         16.87700       20.74800       20.51400
H         16.07200       19.36100       21.47100
H         15.95700       21.08900       21.94900


