%chk=C10H24O2_pair_061_083.chk
%nproc=8
%mem=8000Mb
#p opt b3lyp/6-31G**

Conformer number 513. Energy MM = 0.000 kcal/mol

0 1
H          6.34400       17.03700       10.49900
C          5.94600       16.12800       10.92900
C          4.87900       15.67400        9.96900
H          6.63700       15.32700       11.11600
H          5.53000       16.39700       11.89700
H          4.05100       16.39900        9.96100
H          4.42200       14.76500       10.45900
C          5.36000       15.38100        8.62600
C          5.45400       16.61000        7.75100
H          6.39300       14.97100        8.64100
H          6.08200       17.39900        8.25400
H          4.42500       17.07300        7.68200
O          4.60400       14.30000        8.01100
H          3.71600       14.65700        8.00800
C          6.09400       16.50300        6.35000
H          7.21900       16.67400        6.45500
H          5.77700       17.25700        5.69900
H          5.94100       15.52400        5.89300
H          7.92700       16.04000       18.90300
C          7.12300       16.78700       19.18000
C          6.08900       16.75100       18.09400
H          6.67500       16.56500       20.14300
H          7.59400       17.78400       19.24100
H          5.25700       17.52100       18.29000
H          5.57800       15.75700       18.01600
C          6.74300       17.08900       16.78900
C          7.74900       16.14800       16.24200
H          6.04400       17.06700       15.96700
H          7.09400       15.17100       16.13800
H          8.53000       15.84400       16.89900
O          7.13600       18.49500       16.78600
H          7.76900       18.47100       17.53300
C          8.24500       16.60600       14.84300
H          9.06300       16.08400       14.54700
H          8.49500       17.66200       14.94300
H          7.52400       16.52300       14.07600


