%chk=C10H24O2_pair_053_058.chk
%nproc=8
%mem=8000Mb
#p opt b3lyp/6-31G**

Conformer number 471. Energy MM = 0.000 kcal/mol

0 1
H         13.17900       14.02300        0.61300
C         12.40300       14.77600        0.95500
C         12.82500       16.18100        0.60800
H         11.41400       14.55600        0.57700
H         12.23200       14.57700        1.98700
H         12.84700       16.36200       -0.46300
H         13.77900       16.28300        1.04200
C         11.88300       17.11400        1.14400
C         12.13400       18.54500        0.92900
H         10.81500       16.86500        0.65100
H         12.16400       18.74500       -0.09100
H         13.14800       18.71100        1.45400
O         11.81900       16.86800        2.52700
H         10.90600       17.08900        2.81500
C         11.07900       19.50500        1.51800
H         10.94000       19.26500        2.56500
H         10.21600       19.48900        0.86100
H         11.46900       20.56900        1.48500
H         14.73700       17.79000        6.31100
C         15.24700       18.61500        5.79500
C         14.44400       19.96100        5.76100
H         16.24000       18.70100        6.18100
H         15.38300       18.37300        4.75100
H         15.07600       20.79200        5.32800
H         14.28000       20.17600        6.87600
C         13.23600       19.80000        4.96600
C         12.47900       21.05200        4.70800
H         13.59500       19.38300        3.96500
H         12.34700       21.71100        5.61500
H         11.51500       20.60600        4.40100
O         12.31700       18.88500        5.46100
H         12.72900       18.01000        5.21700
C         13.01200       21.91200        3.57800
H         12.33500       22.72600        3.30800
H         13.04200       21.33000        2.61600
H         14.02500       22.27700        3.74000


