%chk=C10H24O2_pair_026_053.chk
%nproc=8
%mem=8000Mb
#p opt b3lyp/6-31G**

Conformer number 268. Energy MM = 0.000 kcal/mol

0 1
H          6.34900       22.80300       26.44900
C          6.75100       22.74700       25.43600
C          8.11000       22.05000       25.35800
H          6.14200       22.24300       24.76600
H          6.93800       23.80100       25.03600
H          8.03100       21.07800       25.85500
H          8.79100       22.63300       25.98300
C          8.63600       21.78400       24.03100
C          8.80000       22.97800       23.28200
H          9.65100       21.23700       24.07200
H          9.60600       23.54400       23.78100
H          7.93500       23.59100       23.27800
O          7.75600       20.94200       23.19100
H          6.84900       20.87700       23.51400
C          9.31900       22.75100       21.84400
H         10.21200       22.13900       21.79300
H          9.53900       23.73000       21.35800
H          8.50800       22.27500       21.24200
H         13.17900       14.02300       25.07500
C         12.40300       14.77600       25.41700
C         12.82500       16.18100       25.07000
H         11.41400       14.55600       25.03900
H         12.23200       14.57700       26.44900
H         12.84700       16.36200       23.99900
H         13.77900       16.28300       25.50400
C         11.88300       17.11400       25.60600
C         12.13400       18.54500       25.39100
H         10.81500       16.86500       25.11300
H         12.16400       18.74500       24.37100
H         13.14800       18.71100       25.91600
O         11.81900       16.86800       26.98900
H         10.90600       17.08900       27.27700
C         11.07900       19.50500       25.98000
H         10.94000       19.26500       27.02700
H         10.21600       19.48900       25.32300
H         11.46900       20.56900       25.94700


