%chk=C10H24O2_pair_000_069.chk
%nproc=8
%mem=8000Mb
#p opt b3lyp/6-31G**

Conformer number 008. Energy MM = 0.000 kcal/mol

0 1
H          9.65300       13.53000        9.14100
C          8.67700       13.24300        9.58800
C          8.71400       11.82800       10.24500
H          8.30800       13.94500       10.33400
H          7.92300       13.29500        8.76300
H          9.10800       11.21700        9.44200
H          7.70000       11.38700       10.49000
C          9.60000       11.64300       11.37100
C          9.01700       12.41900       12.48100
H          9.51000       10.51700       11.63400
H          7.97500       12.21500       12.75000
H          8.96700       13.49300       12.14600
O         10.90000       12.08900       11.19600
H         11.21300       11.64900       10.39700
C          9.85400       12.34100       13.78500
H          9.31100       12.90000       14.53800
H         10.90300       12.78000       13.65000
H          9.94200       11.24000       14.23600
H         14.07600        9.77300        7.00600
C         13.33500       10.37000        6.43500
C         11.94700        9.76900        6.89000
H         13.45600       11.42400        6.68900
H         13.49700       10.30300        5.32600
H         11.83100        8.73300        6.50500
H         11.20700       10.36200        6.43400
C         11.72700        9.79200        8.37400
C         10.51200        9.08800        8.70200
H         12.58300        9.28300        8.82400
H          9.65100        9.47000        8.14600
H         10.30200        9.21800        9.80000
O         11.64800       11.10900        8.85800
H         12.54100       11.43800        8.80100
C         10.67000        7.57900        8.59900
H         10.70100        7.12600        7.51700
H          9.83300        7.15100        9.13100
H         11.62300        7.30000        9.08200


