%chk=C10H24O2_pair_021_034.chk
%nproc=8
%mem=8000Mb
#p opt b3lyp/6-31G**

Conformer number 222. Energy MM = 0.000 kcal/mol

0 1
H         25.03800        3.06400       14.60200
C         24.04000        2.94400       14.35300
C         23.41800        4.29600       14.16800
H         23.94800        2.29900       13.46900
H         23.54200        2.29000       15.15400
H         23.45200        4.78600       15.13600
H         22.30200        4.19200       13.81100
C         24.15900        5.14700       13.23500
C         23.52600        6.48400       13.08600
H         25.15100        5.32800       13.61100
H         22.43000        6.29300       12.80900
H         23.94400        6.96700       12.15300
O         24.10500        4.53600       11.91400
H         24.59500        3.73900       11.88400
C         23.58300        7.37300       14.35900
H         24.62300        7.59400       14.51700
H         23.12900        6.88700       15.22600
H         23.09700        8.33900       14.14500
H         28.26900        5.15600       10.25400
C         27.45700        4.96100        9.55200
C         27.99400        4.47500        8.20900
H         26.73500        4.19800       10.05900
H         26.91200        5.94100        9.36500
H         27.29200        4.43000        7.38600
H         28.38000        3.50000        8.39500
C         29.09400        5.28100        7.62200
C         29.77900        4.65500        6.48700
H         28.66600        6.23700        7.25100
H         29.00700        4.14400        5.86200
H         30.46800        3.86900        6.78800
O         30.07700        5.55700        8.59500
H         29.86000        6.48500        8.81400
C         30.48500        5.62100        5.52200
H         29.79700        6.38200        5.14100
H         30.98000        5.17300        4.65000
H         31.26900        6.07000        6.11900


