%chk=C10H24O2_pair_022_075.chk
%nproc=8
%mem=8000Mb
#p opt b3lyp/6-31G**

Conformer number 236. Energy MM = 0.000 kcal/mol

0 1
H          1.16200       18.19500        7.18500
C          1.71800       17.28200        7.16500
C          1.06300       16.13900        6.46900
H          2.62700       17.52500        6.51000
H          2.06900       17.00900        8.08500
H          0.69100       16.31200        5.39400
H          0.15600       15.82600        7.01600
C          1.80100       14.89700        6.50900
C          1.20200       13.79400        5.76800
H          2.79600       15.11000        6.10700
H          1.94400       12.96800        5.63200
H          0.97300       14.17700        4.79700
O          2.05500       14.58900        7.84300
H          1.16500       14.47600        8.23600
C         -0.04700       13.20300        6.36300
H         -0.49100       12.46200        5.58200
H         -0.74800       14.01300        6.60700
H          0.13800       12.67100        7.32000
H          0.65600       23.14800       13.12200
C          1.00100       22.09400       12.81500
C          2.45900       22.06600       12.34900
H          0.81000       21.45600       13.73500
H          0.27200       21.81100       12.07000
H          3.08900       21.63500       13.17700
H          2.91400       23.06800       12.18800
C          2.66700       21.17700       11.16900
C          2.21100       19.79100       11.35100
H          2.08000       21.63700       10.39100
H          1.19800       19.68200       11.69500
H          2.88100       19.38800       12.18000
O          4.02800       21.12700       10.87300
H          4.46900       20.80400       11.69600
C          2.25900       18.75000       10.15600
H          2.00900       17.76700       10.69500
H          3.21200       18.86200        9.62600
H          1.50800       18.83600        9.36400


