%chk=C10H24O2_pair_072_082.chk
%nproc=8
%mem=8000Mb
#p opt b3lyp/6-31G**

Conformer number 561. Energy MM = 0.000 kcal/mol

0 1
H          5.85600        3.60400        3.61100
C          5.97600        3.05400        2.67300
C          6.50000        1.65300        3.03300
H          5.07800        3.04100        2.10600
H          6.75900        3.57400        2.09000
H          6.49300        0.98700        2.15000
H          5.97500        1.17800        3.83400
C          7.87100        1.69000        3.50300
C          8.47100        0.35100        3.65400
H          8.48400        2.27600        2.78000
H          8.61700       -0.07500        2.65500
H          7.68600       -0.23400        4.19700
O          7.99700        2.45000        4.69100
H          7.84300        1.84300        5.41300
C          9.81400        0.26800        4.31300
H         10.20300       -0.74100        4.45800
H          9.64700        0.61500        5.38600
H         10.57800        0.85400        3.78300
H          1.46800        4.58600       -1.24300
C          1.30500        4.29300       -0.18300
C          2.28600        3.10500        0.08800
H          1.44400        5.02900        0.58200
H          0.30200        3.90800       -0.21200
H          3.34700        3.43700        0.09700
H          2.16400        2.28300       -0.65000
C          2.23700        2.57400        1.48500
C          2.94600        1.27800        1.43000
H          2.78500        3.23100        2.15400
H          4.02000        1.33500        1.08600
H          2.45300        0.59900        0.70700
O          0.93100        2.40100        2.10000
H          0.68400        1.51900        1.96400
C          2.89300        0.43100        2.74900
H          1.83500        0.13800        3.01600
H          3.43700        0.93100        3.61100
H          3.35900       -0.60000        2.49100


