%chk=C10H24O2_pair_000_071.chk
%nproc=8
%mem=8000Mb
#p opt b3lyp/6-31G**

Conformer number 009. Energy MM = 0.000 kcal/mol

0 1
H          9.65300       13.53000        9.14100
C          8.67700       13.24300        9.58800
C          8.71400       11.82800       10.24500
H          8.30800       13.94500       10.33400
H          7.92300       13.29500        8.76300
H          9.10800       11.21700        9.44200
H          7.70000       11.38700       10.49000
C          9.60000       11.64300       11.37100
C          9.01700       12.41900       12.48100
H          9.51000       10.51700       11.63400
H          7.97500       12.21500       12.75000
H          8.96700       13.49300       12.14600
O         10.90000       12.08900       11.19600
H         11.21300       11.64900       10.39700
C          9.85400       12.34100       13.78500
H          9.31100       12.90000       14.53800
H         10.90300       12.78000       13.65000
H          9.94200       11.24000       14.23600
H          2.20300        7.36400       12.83200
C          2.89400        7.21000       11.92200
C          4.22900        8.08400       11.92200
H          3.08500        6.08800       11.99900
H          2.27200        7.45600       10.94900
H          4.76600        7.93900       12.86200
H          3.94800        9.12500       12.05600
C          5.23600        7.82300       10.88600
C          6.34500        8.73000       11.03400
H          5.60800        6.76500       11.11100
H          6.45800        8.86900       12.08800
H          6.13400        9.70100       10.72600
O          4.71400        7.73300        9.57000
H          4.28900        8.60300        9.41100
C          7.58800        8.21700       10.28000
H          7.38900        8.28600        9.20400
H          7.98600        7.20300       10.55500
H          8.34800        9.02100       10.51400


