%chk=C10H24O2_pair_024_056.chk
%nproc=8
%mem=8000Mb
#p opt b3lyp/6-31G**

Conformer number 254. Energy MM = 0.000 kcal/mol

0 1
H         12.98600       12.00000       18.39500
C         12.26400       11.52800       17.60400
C         11.25800       10.65000       18.23200
H         11.66100       12.35900       17.25300
H         12.76800       11.01800       16.74500
H         10.45800       10.38700       17.48800
H         10.77300       11.32000       18.93500
C         11.71600        9.44600       18.94400
C         10.63700        8.66800       19.43100
H         12.23500        8.73200       18.30300
H          9.97700        8.46600       18.52400
H         10.00000        9.19400       20.10100
O         12.79200        9.73100       19.85600
H         12.37900       10.24700       20.61400
C         11.04900        7.36200       20.01500
H         10.24100        6.69800       20.27800
H         11.68700        7.63100       20.90200
H         11.62900        6.79500       19.31000
H         12.74100        9.42200       23.38300
C         12.68000        8.63600       24.15200
C         12.46700        9.32800       25.49400
H         11.81600        7.91700       24.03700
H         13.64500        8.07300       24.14700
H         13.46500        9.85000       25.84600
H         12.32100        8.57000       26.33300
C         11.37300       10.24300       25.72700
C         11.33900       10.57400       27.16700
H         11.45300       11.20900       25.19300
H         11.41300        9.68400       27.86200
H         10.42400       11.10200       27.42100
O         10.11900        9.62000       25.42800
H         10.09500        8.78500       25.91300
C         12.38500       11.62300       27.52400
H         13.44200       11.33100       27.39700
H         12.42200       11.83200       28.57200
H         12.17100       12.50000       26.93800


