%chk=C10H24O2_pair_014_062.chk
%nproc=8
%mem=8000Mb
#p opt b3lyp/6-31G**

Conformer number 155. Energy MM = 0.000 kcal/mol

0 1
H         18.47000       25.28300       21.85000
C         19.05300       24.53700       22.41800
C         18.38700       23.12200       22.56300
H         20.06100       24.49800       21.90800
H         19.22400       25.02000       23.39600
H         18.19200       22.59700       21.60700
H         17.43700       23.31300       23.10700
C         19.15500       22.28400       23.49600
C         18.75000       20.88300       23.65600
H         20.19100       22.39300       23.26200
H         17.63400       20.79400       23.71800
H         19.17800       20.47600       24.68000
O         18.96500       22.88600       24.81300
H         19.30200       23.74400       24.67400
C         19.21600       20.06400       22.46500
H         20.27900       19.93500       22.51100
H         19.04000       20.68500       21.57800
H         18.70300       19.13100       22.35900
H         19.03600       19.39800       17.00600
C         19.34700       20.33400       17.52400
C         19.86200       20.01800       18.90100
H         19.97900       20.96200       16.87400
H         18.39100       20.90900       17.57700
H         19.08400       19.66800       19.61200
H         20.30400       20.89200       19.33300
C         20.85300       18.90500       18.87800
C         21.44200       18.41700       20.09800
H         20.23600       18.02400       18.46700
H         20.57200       18.09400       20.79200
H         21.91200       19.35400       20.55800
O         21.90600       19.34700       18.01900
H         21.75700       19.07700       17.13000
C         22.39500       17.18400       19.92200
H         22.88400       17.01300       20.90400
H         23.11000       17.35800       19.14000
H         21.73000       16.28900       19.64400


