%chk=C10H24O2_pair_016_082.chk
%nproc=8
%mem=8000Mb
#p opt b3lyp/6-31G**

Conformer number 177. Energy MM = 0.000 kcal/mol

0 1
H          3.44600        4.42600        3.84400
C          3.06100        5.46500        3.75600
C          3.70400        6.12700        2.53100
H          1.97700        5.46400        3.75800
H          3.46100        5.94700        4.65200
H          3.53300        5.50700        1.60700
H          4.86200        6.18300        2.72200
C          3.24200        7.48400        2.22000
C          3.16700        8.32600        3.40800
H          3.85400        7.94600        1.41100
H          4.08500        8.29200        4.01100
H          2.32800        8.02700        3.98600
O          1.90600        7.49000        1.61500
H          1.41000        6.76000        2.00300
C          3.02400        9.78700        2.98900
H          3.12200       10.61300        3.76000
H          2.15000        9.93500        2.30000
H          3.90000       10.08800        2.32100
H          1.46800        4.58600       -1.24300
C          1.30500        4.29300       -0.18300
C          2.28600        3.10500        0.08800
H          1.44400        5.02900        0.58200
H          0.30200        3.90800       -0.21200
H          3.34700        3.43700        0.09700
H          2.16400        2.28300       -0.65000
C          2.23700        2.57400        1.48500
C          2.94600        1.27800        1.43000
H          2.78500        3.23100        2.15400
H          4.02000        1.33500        1.08600
H          2.45300        0.59900        0.70700
O          0.93100        2.40100        2.10000
H          0.68400        1.51900        1.96400
C          2.89300        0.43100        2.74900
H          1.83500        0.13800        3.01600
H          3.43700        0.93100        3.61100
H          3.35900       -0.60000        2.49100


