%chk=C10H24O2_pair_035_082.chk
%nproc=8
%mem=8000Mb
#p opt b3lyp/6-31G**

Conformer number 349. Energy MM = 0.000 kcal/mol

0 1
H          2.39900        1.38200       21.67800
C          1.69200        1.13400       20.84400
C          2.38000        1.00300       19.56200
H          1.09800        0.26700       21.13000
H          1.04300        1.95100       20.89400
H          3.11900        0.17000       19.76600
H          2.94500        1.95200       19.26800
C          1.62300        0.63700       18.35200
C          2.43800        0.50500       17.19300
H          1.21600       -0.35200       18.55200
H          3.16700       -0.26500       17.49900
H          2.99400        1.51000       17.08500
O          0.49600        1.49000       18.24000
H         -0.09500        0.94500       17.79000
C          1.81900        0.16800       15.89000
H          2.62900        0.15900       15.17800
H          1.08000        0.97200       15.70200
H          1.24600       -0.82000       15.81600
H          1.46800        4.58600       23.21900
C          1.30500        4.29300       24.27900
C          2.28600        3.10500       24.55000
H          1.44400        5.02900       25.04400
H          0.30200        3.90800       24.25000
H          3.34700        3.43700       24.55900
H          2.16400        2.28300       23.81200
C          2.23700        2.57400       25.94700
C          2.94600        1.27800       25.89200
H          2.78500        3.23100       26.61600
H          4.02000        1.33500       25.54800
H          2.45300        0.59900       25.16900
O          0.93100        2.40100       26.56200
H          0.68400        1.51900       26.42600
C          2.89300        0.43100       27.21100
H          1.83500        0.13800       27.47800
H          3.43700        0.93100       28.07300
H          3.35900       -0.60000       26.95300


