%chk=C10H24O2_pair_040_085.chk
%nproc=8
%mem=8000Mb
#p opt b3lyp/6-31G**

Conformer number 393. Energy MM = 0.000 kcal/mol

0 1
H         18.01100       13.71500        7.77500
C         18.96500       13.07600        7.49200
C         19.99200       13.08300        8.55600
H         18.67600       12.04700        7.28700
H         19.28900       13.56300        6.58000
H         19.58600       12.60700        9.43100
H         20.14500       14.06700        8.99500
C         21.25900       12.48900        8.22600
C         21.10000       11.11800        7.86100
H         21.63200       13.00400        7.38100
H         20.61200       11.10700        6.87000
H         20.42300       10.64300        8.56200
O         22.25200       12.70800        9.25600
H         21.91800       12.31500       10.09100
C         22.36700       10.21400        7.59900
H         23.07300       10.52400        6.84200
H         22.97300        9.96800        8.48100
H         22.03000        9.20600        7.35900
H         18.01800       15.73400        5.93300
C         18.51600       16.47900        6.62200
C         17.86100       16.73700        8.03000
H         19.58700       16.41300        6.82100
H         18.30600       17.43100        6.01700
H         17.81000       15.82700        8.68200
H         16.80800       16.85300        7.65500
C         18.34400       17.92700        8.70600
C         17.81800       18.17400       10.01100
H         19.42400       17.71700        8.90500
H         18.31200       19.01500       10.57900
H         18.06700       17.30600       10.64800
O         18.15500       19.01200        7.89700
H         18.94600       19.22700        7.43200
C         16.29900       18.20500       10.04900
H         15.87400       18.86800        9.23200
H         15.95200       18.68300       11.05900
H         15.85900       17.25500        9.93800


