%chk=C10H24O2_pair_069_076.chk
%nproc=8
%mem=8000Mb
#p opt b3lyp/6-31G**

Conformer number 549. Energy MM = 0.000 kcal/mol

0 1
H         14.07600        9.77300        7.00600
C         13.33500       10.37000        6.43500
C         11.94700        9.76900        6.89000
H         13.45600       11.42400        6.68900
H         13.49700       10.30300        5.32600
H         11.83100        8.73300        6.50500
H         11.20700       10.36200        6.43400
C         11.72700        9.79200        8.37400
C         10.51200        9.08800        8.70200
H         12.58300        9.28300        8.82400
H          9.65100        9.47000        8.14600
H         10.30200        9.21800        9.80000
O         11.64800       11.10900        8.85800
H         12.54100       11.43800        8.80100
C         10.67000        7.57900        8.59900
H         10.70100        7.12600        7.51700
H          9.83300        7.15100        9.13100
H         11.62300        7.30000        9.08200
H          7.51500       11.99200        4.51700
C          6.40400       12.17000        4.43500
C          5.75700       12.17400        5.79500
H          6.17200       13.08700        3.92900
H          6.01000       11.35400        3.83800
H          4.90300       11.52500        5.84600
H          5.45200       13.15400        5.97900
C          6.62200       11.71500        6.94100
C          7.16100       10.33400        6.99400
H          7.61400       12.33500        7.05500
H          7.43300       10.18200        8.06100
H          8.08600       10.18500        6.35400
O          5.78300       11.82600        8.08100
H          5.55000       12.70700        8.05500
C          6.25100        9.15100        6.72100
H          6.91100        8.24600        6.84300
H          5.71400        9.24300        5.75300
H          5.53800        9.04800        7.59200


