%chk=C10H24O2_pair_010_093.chk
%nproc=8
%mem=8000Mb
#p opt b3lyp/6-31G**

Conformer number 117. Energy MM = 0.000 kcal/mol

0 1
H          2.58800        3.91500       12.36700
C          3.48600        3.27800       12.62100
C          2.95500        1.81900       12.82900
H          4.20300        3.39200       11.73800
H          3.94300        3.60800       13.49500
H          2.19300        1.72700       13.58700
H          3.76800        1.24100       13.05400
C          2.23300        1.34400       11.65200
C          3.01600        1.19000       10.40400
H          1.81900        0.36000       11.96000
H          3.79800        0.38400       10.58700
H          3.57100        2.09700       10.18200
O          1.07900        2.17900       11.60000
H          0.47600        1.69300       10.96100
C          2.22500        0.72600        9.17300
H          1.40700        1.44700        8.92900
H          1.91900       -0.28600        9.25600
H          2.87400        0.63400        8.34300
H          8.95700       -5.29700       11.97900
C          8.04900       -4.67800       11.76400
C          7.96500       -3.60500       12.88300
H          8.19600       -4.10600       10.90800
H          7.26900       -5.41000       11.57000
H          8.71900       -2.85100       12.71500
H          8.14400       -4.04000       13.91300
C          6.74100       -2.82100       12.92200
C          6.70700       -1.77100       13.95900
H          6.55300       -2.42600       11.93000
H          7.71800       -1.32100       14.17300
H          6.36900       -2.24300       14.86600
O          5.60000       -3.71100       13.09200
H          5.51700       -3.89300       14.00100
C          5.61200       -0.69000       13.70400
H          5.43900        0.00700       14.58000
H          4.68200       -1.21700       13.54800
H          5.71900        0.00700       12.87400


