%chk=C10H24O2_pair_019_050.chk
%nproc=8
%mem=8000Mb
#p opt b3lyp/6-31G**

Conformer number 206. Energy MM = 0.000 kcal/mol

0 1
H          9.76000       13.63700       22.33400
C         10.39200       13.75300       21.44800
C         11.89400       13.59800       21.70700
H         10.08900       12.91300       20.81400
H         10.21800       14.71500       20.98400
H         12.29000       14.44400       22.30500
H         12.45400       13.76100       20.73400
C         12.40300       12.25200       22.09600
C         13.81100       11.91600       21.85200
H         12.27200       12.32000       23.18300
H         14.20700       11.95700       20.80400
H         14.00100       10.81000       22.07400
O         11.50900       11.22500       21.61800
H         10.66400       11.32400       22.08900
C         14.65900       12.75300       22.77300
H         15.73200       12.55400       22.79400
H         14.16400       12.68500       23.77100
H         14.50900       13.81100       22.51300
H         14.20200       13.56400       13.91700
C         14.13800       13.81000       14.98300
C         12.81000       14.60300       15.18900
H         14.18200       12.87100       15.50300
H         15.03400       14.39900       15.26200
H         12.01200       13.83400       15.05700
H         12.68900       15.36200       14.39600
C         12.63000       15.05400       16.49700
C         11.26700       15.34200       16.89200
H         12.92800       14.25300       17.17800
H         10.55800       14.56200       16.44200
H         11.03300       16.32800       16.46400
O         13.47400       16.16900       16.71100
H         14.35600       15.77200       16.60200
C         11.22800       15.44000       18.39000
H         10.31000       15.92900       18.77100
H         11.94300       16.19900       18.75900
H         11.39400       14.46600       18.85900


