%chk=C10H24O2_pair_089_098.chk
%nproc=8
%mem=8000Mb
#p opt b3lyp/6-31G**

Conformer number 600. Energy MM = 0.000 kcal/mol

0 1
H         12.13100        1.87700       19.57100
C         11.51100        1.22200       20.21000
C         11.33100        2.09400       21.52500
H         10.59400        0.87200       19.70500
H         12.04800        0.34400       20.41300
H         12.18200        1.85200       22.13200
H         10.47600        1.69600       22.14900
C         11.10000        3.51200       21.40100
C         11.21300        4.07500       22.72000
H         11.72000        4.00200       20.64500
H         12.18000        3.79100       23.12500
H         10.47300        3.61800       23.35500
O          9.76000        3.79000       20.97500
H          9.69000        3.58800       20.01300
C         10.81600        5.57000       22.90400
H          9.71900        5.75900       22.65400
H         11.44800        6.31800       22.44100
H         10.92500        5.78800       24.00400
H          8.46500        1.73200       22.94600
C          8.04700        2.17500       23.85000
C          6.70900        2.82700       23.59200
H          7.97600        1.34700       24.51500
H          8.70200        2.97700       24.25800
H          6.37800        3.01700       24.63100
H          5.92100        2.13900       23.10700
C          6.72000        4.04600       22.82600
C          5.50700        4.82700       22.72400
H          7.51000        4.70900       23.20200
H          5.68700        5.79400       22.21000
H          5.13700        5.13900       23.74400
O          7.07700        3.81500       21.48400
H          8.00400        3.62600       21.46400
C          4.31200        4.24400       21.88000
H          4.05000        3.26200       22.24300
H          4.63700        4.17100       20.83500
H          3.34000        4.77900       21.99400


