%chk=C10H24O2_pair_020_047.chk
%nproc=8
%mem=8000Mb
#p opt b3lyp/6-31G**

Conformer number 214. Energy MM = 0.000 kcal/mol

0 1
H         15.19500        7.26900        9.71900
C         14.17000        6.96500        9.57200
C         14.04400        6.80200        8.06300
H         14.13700        5.97000       10.06700
H         13.51600        7.73300       10.00700
H         14.15300        7.79800        7.58000
H         13.06100        6.43300        7.83200
C         14.94500        5.74900        7.44700
C         16.36100        6.15000        7.66200
H         14.79800        4.72800        7.79400
H         16.62000        6.12600        8.71100
H         16.49600        7.25900        7.37900
O         14.70800        5.70800        6.05600
H         15.06500        4.83500        5.77300
C         17.43000        5.24400        6.93600
H         17.43800        4.20400        7.30100
H         18.46500        5.62100        7.06500
H         17.31000        5.12700        5.81500
H         20.52600        6.99500        5.88800
C         20.09500        7.64100        5.11500
C         18.97300        8.50600        5.66800
H         20.90400        8.34600        4.96200
H         19.78800        7.02800        4.17500
H         19.29300        8.91300        6.59500
H         18.11200        7.82000        6.00000
C         18.30300        9.48300        4.78400
C         17.15400       10.05200        5.46800
H         19.09900       10.24700        4.60700
H         17.48200       10.61400        6.36400
H         16.53700        9.20200        5.86100
O         17.97700        8.97000        3.50000
H         17.35200        8.25800        3.65100
C         16.16200       10.91500        4.71600
H         15.38000       11.23000        5.40700
H         15.69900       10.38200        3.88500
H         16.68000       11.77600        4.28000


