%chk=C10H24O2_pair_072_098.chk
%nproc=8
%mem=8000Mb
#p opt b3lyp/6-31G**

Conformer number 563. Energy MM = 0.000 kcal/mol

0 1
H          5.85600        3.60400        3.61100
C          5.97600        3.05400        2.67300
C          6.50000        1.65300        3.03300
H          5.07800        3.04100        2.10600
H          6.75900        3.57400        2.09000
H          6.49300        0.98700        2.15000
H          5.97500        1.17800        3.83400
C          7.87100        1.69000        3.50300
C          8.47100        0.35100        3.65400
H          8.48400        2.27600        2.78000
H          8.61700       -0.07500        2.65500
H          7.68600       -0.23400        4.19700
O          7.99700        2.45000        4.69100
H          7.84300        1.84300        5.41300
C          9.81400        0.26800        4.31300
H         10.20300       -0.74100        4.45800
H          9.64700        0.61500        5.38600
H         10.57800        0.85400        3.78300
H          8.46500        1.73200       -1.51600
C          8.04700        2.17500       -0.61200
C          6.70900        2.82700       -0.87000
H          7.97600        1.34700        0.05300
H          8.70200        2.97700       -0.20400
H          6.37800        3.01700        0.16900
H          5.92100        2.13900       -1.35500
C          6.72000        4.04600       -1.63600
C          5.50700        4.82700       -1.73800
H          7.51000        4.70900       -1.26000
H          5.68700        5.79400       -2.25200
H          5.13700        5.13900       -0.71800
O          7.07700        3.81500       -2.97800
H          8.00400        3.62600       -2.99800
C          4.31200        4.24400       -2.58200
H          4.05000        3.26200       -2.21900
H          4.63700        4.17100       -3.62700
H          3.34000        4.77900       -2.46800


