%chk=C10H24O2_pair_020_027.chk
%nproc=8
%mem=8000Mb
#p opt b3lyp/6-31G**

Conformer number 211. Energy MM = 0.000 kcal/mol

0 1
H         15.19500        7.26900        9.71900
C         14.17000        6.96500        9.57200
C         14.04400        6.80200        8.06300
H         14.13700        5.97000       10.06700
H         13.51600        7.73300       10.00700
H         14.15300        7.79800        7.58000
H         13.06100        6.43300        7.83200
C         14.94500        5.74900        7.44700
C         16.36100        6.15000        7.66200
H         14.79800        4.72800        7.79400
H         16.62000        6.12600        8.71100
H         16.49600        7.25900        7.37900
O         14.70800        5.70800        6.05600
H         15.06500        4.83500        5.77300
C         17.43000        5.24400        6.93600
H         17.43800        4.20400        7.30100
H         18.46500        5.62100        7.06500
H         17.31000        5.12700        5.81500
H         20.57400        4.45600        5.43800
C         21.35300        3.93400        4.85200
C         22.59900        3.90600        5.78200
H         20.99200        2.89000        4.54800
H         21.65200        4.54200        3.95100
H         22.44000        3.46500        6.74700
H         22.86400        4.97300        5.89300
C         23.73300        3.18500        5.17800
C         24.85100        2.90300        6.10300
H         23.36700        2.14800        4.92500
H         24.40700        2.19700        6.84400
H         25.26200        3.75400        6.71700
O         24.07300        3.95800        3.96800
H         24.64900        3.51800        3.35900
C         26.08500        2.24900        5.38400
H         26.33700        2.89400        4.58800
H         25.68400        1.33300        4.98900
H         26.88700        2.09800        5.99900


