%chk=C10H24O2_pair_017_081.chk
%nproc=8
%mem=8000Mb
#p opt b3lyp/6-31G**

Conformer number 189. Energy MM = 0.000 kcal/mol

0 1
H          1.03700        5.13500       20.68900
C          1.37400        4.46800       19.81300
C          2.03100        5.29700       18.76000
H          2.01800        3.71300       20.23600
H          0.40800        3.94700       19.47300
H          2.77900        5.79600       19.33400
H          1.29200        6.02700       18.42200
C          2.55600        4.51900       17.61300
C          3.18900        5.26100       16.53600
H          3.34000        3.91200       17.99500
H          3.28700        4.57100       15.66200
H          4.17000        5.60600       16.76600
O          1.46600        3.72400       17.01800
H          1.42100        2.93500       17.49600
C          2.43100        6.45400       15.98200
H          2.38400        7.43800       16.44900
H          1.35500        6.09200       16.00300
H          2.78600        6.61100       14.97100
H          0.70300        8.42900       20.42500
C          0.90700        7.67000       21.25700
C          0.64400        8.11100       22.68900
H          0.19200        6.86200       20.93800
H          1.94100        7.33700       21.21000
H          0.72900        7.26200       23.43000
H         -0.46700        8.44900       22.75500
C          1.58200        9.15100       23.22000
C          3.04200        8.87900       23.08600
H          1.47400       10.20200       22.79600
H          3.26000        8.85600       22.03600
H          3.25500        7.85000       23.46200
O          1.32600        9.53400       24.60100
H          1.56500        8.77400       25.10300
C          3.97800        9.89100       23.78000
H          3.70900       10.27100       24.80300
H          4.04400       10.77300       23.16300
H          5.01600        9.38600       23.79600


