%chk=C10H24O2_pair_021_094.chk
%nproc=8
%mem=8000Mb
#p opt b3lyp/6-31G**

Conformer number 229. Energy MM = 0.000 kcal/mol

0 1
H         25.03800        3.06400       14.60200
C         24.04000        2.94400       14.35300
C         23.41800        4.29600       14.16800
H         23.94800        2.29900       13.46900
H         23.54200        2.29000       15.15400
H         23.45200        4.78600       15.13600
H         22.30200        4.19200       13.81100
C         24.15900        5.14700       13.23500
C         23.52600        6.48400       13.08600
H         25.15100        5.32800       13.61100
H         22.43000        6.29300       12.80900
H         23.94400        6.96700       12.15300
O         24.10500        4.53600       11.91400
H         24.59500        3.73900       11.88400
C         23.58300        7.37300       14.35900
H         24.62300        7.59400       14.51700
H         23.12900        6.88700       15.22600
H         23.09700        8.33900       14.14500
H         23.03800       13.46800       12.92900
C         23.72900       13.34800       13.82200
C         23.69800       11.92400       14.38900
H         24.77900       13.71100       13.57000
H         23.25400       14.13500       14.55700
H         24.04100       11.25300       13.59600
H         22.60900       11.70000       14.63200
C         24.57300       11.69600       15.55300
C         24.68100       10.29400       15.92400
H         25.63300       12.09600       15.28800
H         25.03900        9.61000       15.10700
H         23.58200        9.95400       15.87900
O         24.08000       12.50600       16.65700
H         24.77900       12.86300       17.23600
C         25.43400        9.97500       17.28200
H         25.49900        8.94500       17.61000
H         25.07000       10.50200       18.15500
H         26.50200       10.34900       17.15000


