%chk=C10H24O2_pair_042_050.chk
%nproc=8
%mem=8000Mb
#p opt b3lyp/6-31G**

Conformer number 404. Energy MM = 0.000 kcal/mol

0 1
H          5.15000       12.20200       21.15400
C          4.86300       12.78700       20.26900
C          6.10500       13.01300       19.44300
H          4.22400       12.02700       19.83000
H          4.33200       13.74600       20.59300
H          6.78200       13.62600       20.01500
H          5.80100       13.58100       18.52400
C          6.68900       11.81000       19.02900
C          8.07200       11.89300       18.51500
H          6.75600       11.10700       19.90400
H          8.26600       10.89100       17.93800
H          8.82500       11.80300       19.34300
O          5.86300       11.22800       17.98900
H          5.84200       10.25400       18.13800
C          8.35700       12.86600       17.38500
H          7.60700       12.72600       16.56200
H          9.27200       12.52300       16.97400
H          8.45100       13.98900       17.56500
H         14.20200       13.56400       13.91700
C         14.13800       13.81000       14.98300
C         12.81000       14.60300       15.18900
H         14.18200       12.87100       15.50300
H         15.03400       14.39900       15.26200
H         12.01200       13.83400       15.05700
H         12.68900       15.36200       14.39600
C         12.63000       15.05400       16.49700
C         11.26700       15.34200       16.89200
H         12.92800       14.25300       17.17800
H         10.55800       14.56200       16.44200
H         11.03300       16.32800       16.46400
O         13.47400       16.16900       16.71100
H         14.35600       15.77200       16.60200
C         11.22800       15.44000       18.39000
H         10.31000       15.92900       18.77100
H         11.94300       16.19900       18.75900
H         11.39400       14.46600       18.85900


