%chk=C10H24O2_pair_024_038.chk
%nproc=8
%mem=8000Mb
#p opt b3lyp/6-31G**

Conformer number 249. Energy MM = 0.000 kcal/mol

0 1
H         12.98600       12.00000       18.39500
C         12.26400       11.52800       17.60400
C         11.25800       10.65000       18.23200
H         11.66100       12.35900       17.25300
H         12.76800       11.01800       16.74500
H         10.45800       10.38700       17.48800
H         10.77300       11.32000       18.93500
C         11.71600        9.44600       18.94400
C         10.63700        8.66800       19.43100
H         12.23500        8.73200       18.30300
H          9.97700        8.46600       18.52400
H         10.00000        9.19400       20.10100
O         12.79200        9.73100       19.85600
H         12.37900       10.24700       20.61400
C         11.04900        7.36200       20.01500
H         10.24100        6.69800       20.27800
H         11.68700        7.63100       20.90200
H         11.62900        6.79500       19.31000
H          5.92600        5.14200       14.41800
C          6.73900        5.37500       13.63200
C          7.94900        6.10000       14.27400
H          7.02800        4.49900       13.05400
H          6.21000        6.06500       12.94900
H          8.78100        6.08600       13.57900
H          8.17400        5.72300       15.32000
C          7.65200        7.48500       14.58600
C          8.55500        8.32700       15.40500
H          7.60000        8.00800       13.63600
H          9.60200        8.29900       15.07500
H          8.54100        7.95900       16.41900
O          6.39200        7.57900       15.23900
H          5.68800        7.08200       14.79900
C          8.07000        9.74700       15.30300
H          7.20900       10.00400       15.89800
H          7.83300        9.94000       14.22100
H          8.78000       10.51300       15.55600


