%chk=C10H24O2_pair_035_093.chk
%nproc=8
%mem=8000Mb
#p opt b3lyp/6-31G**

Conformer number 351. Energy MM = 0.000 kcal/mol

0 1
H          2.39900        1.38200       21.67800
C          1.69200        1.13400       20.84400
C          2.38000        1.00300       19.56200
H          1.09800        0.26700       21.13000
H          1.04300        1.95100       20.89400
H          3.11900        0.17000       19.76600
H          2.94500        1.95200       19.26800
C          1.62300        0.63700       18.35200
C          2.43800        0.50500       17.19300
H          1.21600       -0.35200       18.55200
H          3.16700       -0.26500       17.49900
H          2.99400        1.51000       17.08500
O          0.49600        1.49000       18.24000
H         -0.09500        0.94500       17.79000
C          1.81900        0.16800       15.89000
H          2.62900        0.15900       15.17800
H          1.08000        0.97200       15.70200
H          1.24600       -0.82000       15.81600
H          8.95700       -5.29700       11.97900
C          8.04900       -4.67800       11.76400
C          7.96500       -3.60500       12.88300
H          8.19600       -4.10600       10.90800
H          7.26900       -5.41000       11.57000
H          8.71900       -2.85100       12.71500
H          8.14400       -4.04000       13.91300
C          6.74100       -2.82100       12.92200
C          6.70700       -1.77100       13.95900
H          6.55300       -2.42600       11.93000
H          7.71800       -1.32100       14.17300
H          6.36900       -2.24300       14.86600
O          5.60000       -3.71100       13.09200
H          5.51700       -3.89300       14.00100
C          5.61200       -0.69000       13.70400
H          5.43900        0.00700       14.58000
H          4.68200       -1.21700       13.54800
H          5.71900        0.00700       12.87400


