%chk=C10H24O2_pair_009_061.chk
%nproc=8
%mem=8000Mb
#p opt b3lyp/6-31G**

Conformer number 104. Energy MM = 0.000 kcal/mol

0 1
H          4.86300       19.32500        8.21700
C          5.31200       20.22000        7.72500
C          4.22500       20.82300        6.82500
H          5.60500       20.89500        8.59000
H          6.20800       19.97400        7.08200
H          3.91100       20.20300        5.98300
H          4.53000       21.77100        6.34400
C          3.05600       21.08800        7.61900
C          1.92600       21.43900        6.73800
H          2.74200       20.21400        8.14600
H          1.58100       20.52900        6.18500
H          2.24000       22.28300        6.05200
O          3.39400       22.11600        8.48700
H          3.72900       21.68200        9.32800
C          0.68900       22.02600        7.48400
H         -0.23300       22.02600        6.83900
H          0.77000       23.06200        7.79500
H          0.60400       21.48700        8.41200
H          6.34400       17.03700       10.49900
C          5.94600       16.12800       10.92900
C          4.87900       15.67400        9.96900
H          6.63700       15.32700       11.11600
H          5.53000       16.39700       11.89700
H          4.05100       16.39900        9.96100
H          4.42200       14.76500       10.45900
C          5.36000       15.38100        8.62600
C          5.45400       16.61000        7.75100
H          6.39300       14.97100        8.64100
H          6.08200       17.39900        8.25400
H          4.42500       17.07300        7.68200
O          4.60400       14.30000        8.01100
H          3.71600       14.65700        8.00800
C          6.09400       16.50300        6.35000
H          7.21900       16.67400        6.45500
H          5.77700       17.25700        5.69900
H          5.94100       15.52400        5.89300


