%chk=C10H24O2_pair_017_082.chk
%nproc=8
%mem=8000Mb
#p opt b3lyp/6-31G**

Conformer number 190. Energy MM = 0.000 kcal/mol

0 1
H          1.03700        5.13500       20.68900
C          1.37400        4.46800       19.81300
C          2.03100        5.29700       18.76000
H          2.01800        3.71300       20.23600
H          0.40800        3.94700       19.47300
H          2.77900        5.79600       19.33400
H          1.29200        6.02700       18.42200
C          2.55600        4.51900       17.61300
C          3.18900        5.26100       16.53600
H          3.34000        3.91200       17.99500
H          3.28700        4.57100       15.66200
H          4.17000        5.60600       16.76600
O          1.46600        3.72400       17.01800
H          1.42100        2.93500       17.49600
C          2.43100        6.45400       15.98200
H          2.38400        7.43800       16.44900
H          1.35500        6.09200       16.00300
H          2.78600        6.61100       14.97100
H          1.46800        4.58600       23.21900
C          1.30500        4.29300       24.27900
C          2.28600        3.10500       24.55000
H          1.44400        5.02900       25.04400
H          0.30200        3.90800       24.25000
H          3.34700        3.43700       24.55900
H          2.16400        2.28300       23.81200
C          2.23700        2.57400       25.94700
C          2.94600        1.27800       25.89200
H          2.78500        3.23100       26.61600
H          4.02000        1.33500       25.54800
H          2.45300        0.59900       25.16900
O          0.93100        2.40100       26.56200
H          0.68400        1.51900       26.42600
C          2.89300        0.43100       27.21100
H          1.83500        0.13800       27.47800
H          3.43700        0.93100       28.07300
H          3.35900       -0.60000       26.95300


