%chk=C10H24O2_pair_058_063.chk
%nproc=8
%mem=8000Mb
#p opt b3lyp/6-31G**

Conformer number 494. Energy MM = 0.000 kcal/mol

0 1
H         14.73700       17.79000        6.31100
C         15.24700       18.61500        5.79500
C         14.44400       19.96100        5.76100
H         16.24000       18.70100        6.18100
H         15.38300       18.37300        4.75100
H         15.07600       20.79200        5.32800
H         14.28000       20.17600        6.87600
C         13.23600       19.80000        4.96600
C         12.47900       21.05200        4.70800
H         13.59500       19.38300        3.96500
H         12.34700       21.71100        5.61500
H         11.51500       20.60600        4.40100
O         12.31700       18.88500        5.46100
H         12.72900       18.01000        5.21700
C         13.01200       21.91200        3.57800
H         12.33500       22.72600        3.30800
H         13.04200       21.33000        2.61600
H         14.02500       22.27700        3.74000
H          8.52200       20.71600        3.22600
C          7.82400       21.19600        3.87300
C          8.25900       21.19200        5.34100
H          7.70500       22.22800        3.51900
H          6.90300       20.61500        3.73100
H          7.39400       21.63800        5.86100
H          9.03200       21.94400        5.48100
C          8.67500       19.93100        5.86800
C          9.23200       20.07000        7.21000
H          7.83400       19.34300        6.06100
H          8.40200       20.41800        7.83700
H         10.05100       20.87400        7.24300
O          9.55300       19.25600        5.02400
H         10.46400       19.37900        5.33100
C          9.84900       18.89200        7.94100
H         10.22200       19.17900        8.91800
H         10.68700       18.34300        7.34900
H          9.08700       18.09500        8.12600


