%chk=C10H24O2_pair_018_080.chk
%nproc=8
%mem=8000Mb
#p opt b3lyp/6-31G**

Conformer number 201. Energy MM = 0.000 kcal/mol

0 1
H          8.16400        4.53300        7.77200
C          8.56600        4.79700        8.80100
C          8.47200        3.69400        9.84000
H          9.71200        4.99900        8.74500
H          8.11100        5.71800        9.11300
H          8.86600        4.12100       10.77900
H          9.04300        2.80100        9.44800
C          7.08900        3.29600       10.15100
C          6.94900        2.08300       10.98800
H          6.56200        4.11600       10.69600
H          7.17100        1.17700       10.32400
H          5.87900        1.93500       11.24400
O          6.45400        2.93800        8.93300
H          6.31300        3.72200        8.41200
C          7.71000        1.99200       12.33300
H          7.24300        2.56300       13.17200
H          8.73700        2.29100       12.18000
H          7.81700        0.95700       12.66500
H          9.44700        3.41500        6.17600
C         10.53800        3.38900        6.40800
C         11.34700        4.16800        5.43600
H         10.68400        3.91200        7.39300
H         10.96600        2.41200        6.68300
H         12.43800        4.05100        5.71300
H         11.28400        5.28700        5.52700
C         11.23500        3.92400        3.97800
C         12.16100        4.69000        3.17300
H         11.41700        2.76200        3.73300
H         13.22600        4.49900        3.52800
H         11.82000        5.79400        3.32500
O          9.95100        4.33300        3.44400
H          9.31900        3.80400        3.92700
C         12.08700        4.19700        1.71900
H         12.79600        4.82000        1.04300
H         11.00300        4.36900        1.39300
H         12.35800        3.20000        1.71700


