%chk=C10H24O2_pair_034_072.chk
%nproc=8
%mem=8000Mb
#p opt b3lyp/6-31G**

Conformer number 341. Energy MM = 0.000 kcal/mol

0 1
H          3.80700        5.15600       10.25400
C          2.99500        4.96100        9.55200
C          3.53200        4.47500        8.20900
H          2.27300        4.19800       10.05900
H          2.45000        5.94100        9.36500
H          2.83000        4.43000        7.38600
H          3.91800        3.50000        8.39500
C          4.63200        5.28100        7.62200
C          5.31700        4.65500        6.48700
H          4.20400        6.23700        7.25100
H          4.54500        4.14400        5.86200
H          6.00600        3.86900        6.78800
O          5.61500        5.55700        8.59500
H          5.39800        6.48500        8.81400
C          6.02300        5.62100        5.52200
H          5.33500        6.38200        5.14100
H          6.51800        5.17300        4.65000
H          6.80700        6.07000        6.11900
H          5.85600        3.60400        3.61100
C          5.97600        3.05400        2.67300
C          6.50000        1.65300        3.03300
H          5.07800        3.04100        2.10600
H          6.75900        3.57400        2.09000
H          6.49300        0.98700        2.15000
H          5.97500        1.17800        3.83400
C          7.87100        1.69000        3.50300
C          8.47100        0.35100        3.65400
H          8.48400        2.27600        2.78000
H          8.61700       -0.07500        2.65500
H          7.68600       -0.23400        4.19700
O          7.99700        2.45000        4.69100
H          7.84300        1.84300        5.41300
C          9.81400        0.26800        4.31300
H         10.20300       -0.74100        4.45800
H          9.64700        0.61500        5.38600
H         10.57800        0.85400        3.78300


