%chk=C10H24O2_pair_007_044.chk
%nproc=8
%mem=8000Mb
#p opt b3lyp/6-31G**

Conformer number 083. Energy MM = 0.000 kcal/mol

0 1
H         22.93600        0.29600       -1.74400
C         23.63700        0.37400       -0.87600
C         23.09300        1.34700        0.17700
H         23.76600       -0.56100       -0.39100
H         24.65400        0.60800       -1.41100
H         23.43300        2.36100       -0.03900
H         23.52400        1.15900        1.12900
C         21.66200        1.28300        0.28500
C         21.15800        2.28500        1.21100
H         21.32600        1.47000       -0.75100
H         21.54500        3.30200        0.86700
H         21.69200        2.09100        2.15500
O         21.18300        0.01300        0.60600
H         21.62300       -0.62000        0.02700
C         19.65500        2.24600        1.32200
H         19.20800        2.56200        0.32000
H         19.35700        2.99200        2.10500
H         19.21200        1.19500        1.55800
H         23.76700        7.80800        5.46700
C         24.15700        7.45000        4.45700
C         23.00100        7.07800        3.48900
H         24.81600        8.31800        4.10700
H         24.83800        6.67600        4.70600
H         22.43400        7.96700        3.40100
H         22.31800        6.37500        3.92700
C         23.36100        6.65600        2.14500
C         22.29900        6.27400        1.19500
H         23.88400        7.42000        1.65200
H         21.80900        5.33300        1.51000
H         22.91300        5.95500        0.35300
O         24.26000        5.62800        2.18100
H         23.91400        4.97800        2.75200
C         21.25000        7.29900        0.82200
H         21.80400        8.15200        0.35500
H         20.56800        7.55900        1.69600
H         20.43300        6.85900        0.15300


