%chk=C10H24O2_pair_087_092.chk
%nproc=8
%mem=8000Mb
#p opt b3lyp/6-31G**

Conformer number 595. Energy MM = 0.000 kcal/mol

0 1
H         24.28300       10.52500        4.03500
C         24.20700       11.30200        3.19100
C         23.47500       10.56700        2.03800
H         23.61800       12.19500        3.55800
H         25.15500       11.69700        2.90900
H         22.54000       10.10600        2.39400
H         24.11300        9.65900        1.85200
C         23.21900       11.50400        0.92700
C         22.55300       10.97500       -0.26500
H         22.68900       12.37300        1.27900
H         21.59100       10.60000        0.05000
H         23.17700       10.13700       -0.61700
O         24.56000       11.88500        0.47400
H         25.01200       11.04100        0.32800
C         22.62900       11.95300       -1.46200
H         21.78200       11.87300       -2.11600
H         23.46500       11.73900       -2.10200
H         22.71900       13.02400       -1.15300
H         28.25800       13.32800        3.93300
C         28.21700       14.27200        3.42900
C         28.37200       14.18100        1.85900
H         27.19800       14.71600        3.55500
H         29.02400       14.85200        3.84200
H         29.35600       13.66800        1.69200
H         28.41700       15.19100        1.51700
C         27.40200       13.36500        1.13700
C         27.82100       13.51900       -0.26300
H         27.42600       12.24800        1.40100
H         28.74600       12.94600       -0.49200
H         27.93400       14.62400       -0.49400
O         26.10600       13.87400        1.40200
H         25.56900       13.17200        1.01400
C         26.78500       13.16200       -1.29600
H         25.78700       13.81100       -1.18300
H         26.38000       12.23500       -1.21600
H         27.07000       13.31800       -2.36700


