%chk=C10H24O2_pair_022_025.chk
%nproc=8
%mem=8000Mb
#p opt b3lyp/6-31G**

Conformer number 230. Energy MM = 0.000 kcal/mol

0 1
H          1.16200       18.19500        7.18500
C          1.71800       17.28200        7.16500
C          1.06300       16.13900        6.46900
H          2.62700       17.52500        6.51000
H          2.06900       17.00900        8.08500
H          0.69100       16.31200        5.39400
H          0.15600       15.82600        7.01600
C          1.80100       14.89700        6.50900
C          1.20200       13.79400        5.76800
H          2.79600       15.11000        6.10700
H          1.94400       12.96800        5.63200
H          0.97300       14.17700        4.79700
O          2.05500       14.58900        7.84300
H          1.16500       14.47600        8.23600
C         -0.04700       13.20300        6.36300
H         -0.49100       12.46200        5.58200
H         -0.74800       14.01300        6.60700
H          0.13800       12.67100        7.32000
H          1.26600       15.69600       13.03600
C          0.54300       15.99900       12.31700
C          0.77900       15.23700       11.00800
H         -0.37100       15.60900       12.67300
H          0.65600       17.06300       12.17700
H          0.63800       14.24400       11.40600
H          1.86800       15.23100       10.75000
C         -0.14200       15.53000        9.95400
C         -1.47600       15.98700       10.30300
H          0.19000       16.36600        9.23800
H         -1.50800       16.93900       10.88700
H         -1.95600       15.29100       11.06400
O         -0.17500       14.46700        9.04800
H         -0.95400       13.96500        9.21300
C         -2.38600       16.12000        9.13000
H         -3.40100       16.41900        9.54100
H         -2.60100       15.18600        8.67700
H         -1.96300       16.88600        8.35500


