%chk=C10H24O2_pair_046_054.chk
%nproc=8
%mem=8000Mb
#p opt b3lyp/6-31G**

Conformer number 432. Energy MM = 0.000 kcal/mol

0 1
H         22.52900        8.46200       20.81800
C         21.99900        8.63300       19.91200
C         22.65500        7.76900       18.74200
H         20.96100        8.39800       20.11700
H         22.20100        9.67300       19.56900
H         23.72600        7.97000       18.72400
H         22.33200        8.08700       17.79100
C         22.35600        6.32600       18.88900
C         22.88200        5.56200       17.76000
H         22.91400        5.94000       19.80500
H         23.93000        5.73500       17.61600
H         22.24800        5.98000       16.86800
O         21.03100        6.07600       18.95700
H         20.75300        5.90700       19.87700
C         22.57400        4.05800       17.94000
H         21.47400        3.98500       17.99800
H         22.88600        3.52400       18.85000
H         22.97100        3.52200       17.05400
H         22.93300        5.63100       22.16200
C         22.98900        4.55000       22.37700
C         21.69700        3.95800       21.76900
H         23.87800        4.28700       21.84800
H         23.12300        4.44200       23.48900
H         21.76600        2.91500       22.03500
H         21.78900        4.00300       20.63200
C         20.48900        4.66400       22.19300
C         19.24300        4.01100       21.81300
H         20.49300        4.79200       23.38800
H         18.36400        4.52300       22.22100
H         19.13200        3.05100       22.32700
O         20.43200        6.00800       21.65700
H         19.60900        6.41500       21.97900
C         19.02900        3.81600       20.22200
H         18.68900        4.73600       19.69400
H         18.16800        3.04800       20.06000
H         19.93400        3.46100       19.72000


