%chk=C10H24O2_pair_081_090.chk
%nproc=8
%mem=8000Mb
#p opt b3lyp/6-31G**

Conformer number 584. Energy MM = 0.000 kcal/mol

0 1
H          0.70300        8.42900       20.42500
C          0.90700        7.67000       21.25700
C          0.64400        8.11100       22.68900
H          0.19200        6.86200       20.93800
H          1.94100        7.33700       21.21000
H          0.72900        7.26200       23.43000
H         -0.46700        8.44900       22.75500
C          1.58200        9.15100       23.22000
C          3.04200        8.87900       23.08600
H          1.47400       10.20200       22.79600
H          3.26000        8.85600       22.03600
H          3.25500        7.85000       23.46200
O          1.32600        9.53400       24.60100
H          1.56500        8.77400       25.10300
C          3.97800        9.89100       23.78000
H          3.70900       10.27100       24.80300
H          4.04400       10.77300       23.16300
H          5.01600        9.38600       23.79600
H          7.76300        6.73900       24.66500
C          6.97100        7.06500       25.37000
C          7.34000        7.97100       26.58600
H          6.25000        7.63600       24.81400
H          6.37900        6.10800       25.69600
H          6.43700        7.99000       27.28100
H          7.37500        9.06300       26.38400
C          8.42200        7.51100       27.34900
C          8.64500        8.17500       28.60400
H          8.04100        6.52800       27.63400
H          7.62400        8.21200       29.17800
H          8.96900        9.20000       28.36600
O          9.61700        7.31600       26.62700
H          9.91400        6.51900       27.08500
C          9.63200        7.45500       29.58300
H         10.67400        7.63600       29.28100
H          9.35800        6.44500       29.62400
H          9.41100        7.80800       30.57200


