%chk=C10H24O2_pair_016_076.chk
%nproc=8
%mem=8000Mb
#p opt b3lyp/6-31G**

Conformer number 175. Energy MM = 0.000 kcal/mol

0 1
H          3.44600        4.42600        3.84400
C          3.06100        5.46500        3.75600
C          3.70400        6.12700        2.53100
H          1.97700        5.46400        3.75800
H          3.46100        5.94700        4.65200
H          3.53300        5.50700        1.60700
H          4.86200        6.18300        2.72200
C          3.24200        7.48400        2.22000
C          3.16700        8.32600        3.40800
H          3.85400        7.94600        1.41100
H          4.08500        8.29200        4.01100
H          2.32800        8.02700        3.98600
O          1.90600        7.49000        1.61500
H          1.41000        6.76000        2.00300
C          3.02400        9.78700        2.98900
H          3.12200       10.61300        3.76000
H          2.15000        9.93500        2.30000
H          3.90000       10.08800        2.32100
H          7.51500       11.99200        4.51700
C          6.40400       12.17000        4.43500
C          5.75700       12.17400        5.79500
H          6.17200       13.08700        3.92900
H          6.01000       11.35400        3.83800
H          4.90300       11.52500        5.84600
H          5.45200       13.15400        5.97900
C          6.62200       11.71500        6.94100
C          7.16100       10.33400        6.99400
H          7.61400       12.33500        7.05500
H          7.43300       10.18200        8.06100
H          8.08600       10.18500        6.35400
O          5.78300       11.82600        8.08100
H          5.55000       12.70700        8.05500
C          6.25100        9.15100        6.72100
H          6.91100        8.24600        6.84300
H          5.71400        9.24300        5.75300
H          5.53800        9.04800        7.59200


