%chk=C10H24O2_pair_067_098.chk
%nproc=8
%mem=8000Mb
#p opt b3lyp/6-31G**

Conformer number 541. Energy MM = 0.000 kcal/mol

0 1
H          7.87500        1.16800       20.95800
C          7.07700        0.61000       20.42100
C          5.86600        1.45100       19.95500
H          7.51900        0.07100       19.55200
H          6.64100       -0.12400       21.10100
H          5.50900        2.07600       20.80700
H          5.03400        0.79300       19.86300
C          5.90700        2.26100       18.78000
C          6.02900        1.56100       17.49700
H          4.98500        2.86600       18.77900
H          5.43800        0.64900       17.37700
H          7.12100        1.23300       17.35000
O          7.07200        3.11600       18.88400
H          6.93100        3.44400       19.73000
C          5.74500        2.52400       16.37900
H          5.70900        2.22600       15.35200
H          6.50300        3.30800       16.44900
H          4.77500        2.95900       16.58500
H          8.46500        1.73200       22.94600
C          8.04700        2.17500       23.85000
C          6.70900        2.82700       23.59200
H          7.97600        1.34700       24.51500
H          8.70200        2.97700       24.25800
H          6.37800        3.01700       24.63100
H          5.92100        2.13900       23.10700
C          6.72000        4.04600       22.82600
C          5.50700        4.82700       22.72400
H          7.51000        4.70900       23.20200
H          5.68700        5.79400       22.21000
H          5.13700        5.13900       23.74400
O          7.07700        3.81500       21.48400
H          8.00400        3.62600       21.46400
C          4.31200        4.24400       21.88000
H          4.05000        3.26200       22.24300
H          4.63700        4.17100       20.83500
H          3.34000        4.77900       21.99400


