%chk=C10H24O2_pair_046_081.chk
%nproc=8
%mem=8000Mb
#p opt b3lyp/6-31G**

Conformer number 433. Energy MM = 0.000 kcal/mol

0 1
H         22.52900        8.46200       20.81800
C         21.99900        8.63300       19.91200
C         22.65500        7.76900       18.74200
H         20.96100        8.39800       20.11700
H         22.20100        9.67300       19.56900
H         23.72600        7.97000       18.72400
H         22.33200        8.08700       17.79100
C         22.35600        6.32600       18.88900
C         22.88200        5.56200       17.76000
H         22.91400        5.94000       19.80500
H         23.93000        5.73500       17.61600
H         22.24800        5.98000       16.86800
O         21.03100        6.07600       18.95700
H         20.75300        5.90700       19.87700
C         22.57400        4.05800       17.94000
H         21.47400        3.98500       17.99800
H         22.88600        3.52400       18.85000
H         22.97100        3.52200       17.05400
H         25.16500        8.42900       20.42500
C         25.36900        7.67000       21.25700
C         25.10600        8.11100       22.68900
H         24.65400        6.86200       20.93800
H         26.40300        7.33700       21.21000
H         25.19100        7.26200       23.43000
H         23.99500        8.44900       22.75500
C         26.04400        9.15100       23.22000
C         27.50400        8.87900       23.08600
H         25.93600       10.20200       22.79600
H         27.72200        8.85600       22.03600
H         27.71700        7.85000       23.46200
O         25.78800        9.53400       24.60100
H         26.02700        8.77400       25.10300
C         28.44000        9.89100       23.78000
H         28.17100       10.27100       24.80300
H         28.50600       10.77300       23.16300
H         29.47800        9.38600       23.79600


