%chk=C10H24O2_pair_029_058.chk
%nproc=8
%mem=8000Mb
#p opt b3lyp/6-31G**

Conformer number 298. Energy MM = 0.000 kcal/mol

0 1
H         12.65800       25.72400       24.33000
C         11.82400       25.12900       24.76000
C         12.25300       23.68300       24.84300
H         11.59000       25.47900       25.73500
H         10.95200       25.36700       24.16100
H         11.54300       23.07100       25.37400
H         13.19800       23.66300       25.43300
C         12.58500       23.11800       23.49900
C         12.91700       21.70100       23.56000
H         11.75700       23.47500       22.77500
H         13.05500       21.31200       22.51500
H         12.05500       21.10400       23.85700
O         13.71400       23.69700       22.91300
H         13.89500       23.12000       22.15800
C         14.17400       21.25000       24.38900
H         13.98600       21.07100       25.41000
H         14.96200       22.06000       24.44800
H         14.64100       20.42000       23.81900
H         14.73700       17.79000       30.77300
C         15.24700       18.61500       30.25700
C         14.44400       19.96100       30.22300
H         16.24000       18.70100       30.64300
H         15.38300       18.37300       29.21300
H         15.07600       20.79200       29.79000
H         14.28000       20.17600       31.33800
C         13.23600       19.80000       29.42800
C         12.47900       21.05200       29.17000
H         13.59500       19.38300       28.42700
H         12.34700       21.71100       30.07700
H         11.51500       20.60600       28.86300
O         12.31700       18.88500       29.92300
H         12.72900       18.01000       29.67900
C         13.01200       21.91200       28.04000
H         12.33500       22.72600       27.77000
H         13.04200       21.33000       27.07800
H         14.02500       22.27700       28.20200


