%chk=C10H24O2_pair_003_021.chk
%nproc=8
%mem=8000Mb
#p opt b3lyp/6-31G**

Conformer number 039. Energy MM = 0.000 kcal/mol

0 1
H         19.99400        1.66500       12.36000
C         19.77900        2.69000       12.56500
C         18.94600        3.30900       11.42700
H         19.30200        2.74700       13.54400
H         20.75500        3.22300       12.63000
H         19.64000        3.62700       10.63900
H         18.38500        4.15800       11.81700
C         18.00700        2.38600       10.86000
C         17.32400        2.92900        9.74000
H         18.60900        1.47200       10.55400
H         18.05500        3.38700        9.14300
H         16.54600        3.63600       10.08700
O         17.03800        2.13600       11.83500
H         16.69600        3.01900       12.02500
C         16.72300        1.91300        8.73300
H         16.10000        2.45200        7.98900
H         16.01800        1.24600        9.23600
H         17.52900        1.31400        8.13500
H         25.03800        3.06400       14.60200
C         24.04000        2.94400       14.35300
C         23.41800        4.29600       14.16800
H         23.94800        2.29900       13.46900
H         23.54200        2.29000       15.15400
H         23.45200        4.78600       15.13600
H         22.30200        4.19200       13.81100
C         24.15900        5.14700       13.23500
C         23.52600        6.48400       13.08600
H         25.15100        5.32800       13.61100
H         22.43000        6.29300       12.80900
H         23.94400        6.96700       12.15300
O         24.10500        4.53600       11.91400
H         24.59500        3.73900       11.88400
C         23.58300        7.37300       14.35900
H         24.62300        7.59400       14.51700
H         23.12900        6.88700       15.22600
H         23.09700        8.33900       14.14500


