%chk=C10H24O2_pair_061_075.chk
%nproc=8
%mem=8000Mb
#p opt b3lyp/6-31G**

Conformer number 511. Energy MM = 0.000 kcal/mol

0 1
H          6.34400       17.03700       10.49900
C          5.94600       16.12800       10.92900
C          4.87900       15.67400        9.96900
H          6.63700       15.32700       11.11600
H          5.53000       16.39700       11.89700
H          4.05100       16.39900        9.96100
H          4.42200       14.76500       10.45900
C          5.36000       15.38100        8.62600
C          5.45400       16.61000        7.75100
H          6.39300       14.97100        8.64100
H          6.08200       17.39900        8.25400
H          4.42500       17.07300        7.68200
O          4.60400       14.30000        8.01100
H          3.71600       14.65700        8.00800
C          6.09400       16.50300        6.35000
H          7.21900       16.67400        6.45500
H          5.77700       17.25700        5.69900
H          5.94100       15.52400        5.89300
H          0.65600       23.14800       13.12200
C          1.00100       22.09400       12.81500
C          2.45900       22.06600       12.34900
H          0.81000       21.45600       13.73500
H          0.27200       21.81100       12.07000
H          3.08900       21.63500       13.17700
H          2.91400       23.06800       12.18800
C          2.66700       21.17700       11.16900
C          2.21100       19.79100       11.35100
H          2.08000       21.63700       10.39100
H          1.19800       19.68200       11.69500
H          2.88100       19.38800       12.18000
O          4.02800       21.12700       10.87300
H          4.46900       20.80400       11.69600
C          2.25900       18.75000       10.15600
H          2.00900       17.76700       10.69500
H          3.21200       18.86200        9.62600
H          1.50800       18.83600        9.36400


