%chk=C10H24O2_pair_048_056.chk
%nproc=8
%mem=8000Mb
#p opt b3lyp/6-31G**

Conformer number 441. Energy MM = 0.000 kcal/mol

0 1
H         10.14800       14.18900        6.18100
C         10.74600       14.61500        6.96700
C         11.64900       15.63500        6.39000
H         10.05800       14.99100        7.75400
H         11.27300       13.75500        7.47700
H         12.09400       16.22000        7.18900
H         10.91300       16.26200        5.80100
C         12.71800       15.19900        5.46600
C         13.71400       14.27800        5.97100
H         12.03800       14.61900        4.81800
H         14.18000       13.83100        5.10000
H         13.20600       13.38900        6.52300
O         13.16900       16.33700        4.78700
H         13.00900       16.16800        3.82600
C         14.83500       14.97200        6.74100
H         15.48800       15.53700        5.99500
H         15.44200       14.24200        7.22600
H         14.52700       15.61000        7.55100
H         12.74100        9.42200       -1.07900
C         12.68000        8.63600       -0.31000
C         12.46700        9.32800        1.03200
H         11.81600        7.91700       -0.42500
H         13.64500        8.07300       -0.31500
H         13.46500        9.85000        1.38400
H         12.32100        8.57000        1.87100
C         11.37300       10.24300        1.26500
C         11.33900       10.57400        2.70500
H         11.45300       11.20900        0.73100
H         11.41300        9.68400        3.40000
H         10.42400       11.10200        2.95900
O         10.11900        9.62000        0.96600
H         10.09500        8.78500        1.45100
C         12.38500       11.62300        3.06200
H         13.44200       11.33100        2.93500
H         12.42200       11.83200        4.11000
H         12.17100       12.50000        2.47600


