%chk=C10H24O2_pair_021_045.chk
%nproc=8
%mem=8000Mb
#p opt b3lyp/6-31G**

Conformer number 224. Energy MM = 0.000 kcal/mol

0 1
H         25.03800        3.06400       14.60200
C         24.04000        2.94400       14.35300
C         23.41800        4.29600       14.16800
H         23.94800        2.29900       13.46900
H         23.54200        2.29000       15.15400
H         23.45200        4.78600       15.13600
H         22.30200        4.19200       13.81100
C         24.15900        5.14700       13.23500
C         23.52600        6.48400       13.08600
H         25.15100        5.32800       13.61100
H         22.43000        6.29300       12.80900
H         23.94400        6.96700       12.15300
O         24.10500        4.53600       11.91400
H         24.59500        3.73900       11.88400
C         23.58300        7.37300       14.35900
H         24.62300        7.59400       14.51700
H         23.12900        6.88700       15.22600
H         23.09700        8.33900       14.14500
H         18.88600        2.67900       16.54000
C         18.53000        3.70500       16.82000
C         19.28900        4.80000       16.02200
H         17.46400        3.83100       16.45800
H         18.49800        3.90300       17.93500
H         19.05700        4.69300       14.97000
H         20.36200        4.76900       16.16600
C         18.88500        6.21700       16.29900
C         19.54800        7.14000       15.41100
H         17.82400        6.34800       16.02300
H         19.16800        6.89800       14.37600
H         20.62500        6.82600       15.37500
O         18.94900        6.47900       17.70900
H         19.84900        6.26200       17.95100
C         19.31400        8.58900       15.69100
H         19.48300        8.75600       16.78500
H         18.23800        8.82600       15.44400
H         19.91300        9.30900       15.06400


