%chk=C10H24O2_pair_004_058.chk
%nproc=8
%mem=8000Mb
#p opt b3lyp/6-31G**

Conformer number 052. Energy MM = 0.000 kcal/mol

0 1
H         17.94100       21.31000        5.92100
C         17.92600       22.31100        6.41200
C         18.84500       23.41300        5.80800
H         16.85500       22.61200        6.36000
H         18.15400       22.09200        7.47900
H         18.69300       24.37200        6.27100
H         18.40700       23.63300        4.75500
C         20.24900       23.03900        5.71800
C         21.16700       24.00600        5.10300
H         20.65900       23.01200        6.75300
H         22.18200       23.62000        5.14700
H         21.15700       24.90100        5.75800
O         20.47700       21.75300        5.15900
H         19.95400       21.81200        4.31000
C         20.90200       24.42100        3.67100
H         21.52700       25.25900        3.29300
H         19.88900       24.81000        3.50200
H         21.07800       23.55700        3.01100
H         14.73700       17.79000        6.31100
C         15.24700       18.61500        5.79500
C         14.44400       19.96100        5.76100
H         16.24000       18.70100        6.18100
H         15.38300       18.37300        4.75100
H         15.07600       20.79200        5.32800
H         14.28000       20.17600        6.87600
C         13.23600       19.80000        4.96600
C         12.47900       21.05200        4.70800
H         13.59500       19.38300        3.96500
H         12.34700       21.71100        5.61500
H         11.51500       20.60600        4.40100
O         12.31700       18.88500        5.46100
H         12.72900       18.01000        5.21700
C         13.01200       21.91200        3.57800
H         12.33500       22.72600        3.30800
H         13.04200       21.33000        2.61600
H         14.02500       22.27700        3.74000


