%chk=C10H24O2_pair_005_073.chk
%nproc=8
%mem=8000Mb
#p opt b3lyp/6-31G**

Conformer number 063. Energy MM = 0.000 kcal/mol

0 1
H          9.12300        0.49700       17.08600
C          9.66800        0.95400       16.26200
C         10.71100        1.95000       16.69600
H         10.15500        0.10600       15.69400
H          8.92300        1.29300       15.51100
H         11.29800        2.32100       15.83600
H         11.25900        1.46800       17.46000
C         10.11800        3.14100       17.20000
C         11.09500        4.18600       17.32100
H          9.41000        3.50200       16.40000
H         11.81900        4.21200       16.50800
H         11.66900        4.02300       18.24200
O          9.48200        3.05100       18.46600
H          8.54500        2.82600       18.32500
C         10.45600        5.61300       17.42300
H          9.86100        5.69000       18.32700
H          9.84200        5.87500       16.57400
H         11.29800        6.39300       17.37900
H         10.59100       -0.16800       10.74800
C         10.16600       -0.86300       11.58100
C         10.59400       -0.35700       12.95500
H          9.04500       -0.99300       11.45300
H         10.51100       -1.89500       11.31700
H         10.05500       -0.80800       13.80000
H         10.25700        0.73500       12.99000
C         12.01700       -0.53700       13.19200
C         12.48400       -0.01800       14.49700
H         12.32400       -1.60800       13.18800
H         11.95700       -0.57600       15.26300
H         12.23000        1.04200       14.61300
O         12.81200        0.07200       12.12500
H         13.18100       -0.70900       11.71100
C         13.93400       -0.10500       14.67000
H         14.41300       -1.02100       14.27600
H         14.37900       -0.05700       15.71900
H         14.39700        0.61800       14.04400


