%chk=C10H24O2_pair_006_082.chk
%nproc=8
%mem=8000Mb
#p opt b3lyp/6-31G**

Conformer number 078. Energy MM = 0.000 kcal/mol

0 1
H          5.20400        1.78700        6.55400
C          5.06300        0.71100        6.51400
C          5.91000       -0.04600        7.51800
H          4.06900        0.44000        6.79800
H          5.31800        0.47200        5.40700
H          5.66000       -1.15000        7.58300
H          5.78200        0.33200        8.50600
C          7.33200        0.03600        7.17500
C          8.28700       -0.69100        8.03900
H          7.44100       -0.38200        6.15400
H          7.97300       -1.77800        8.21800
H          8.28700       -0.29000        9.04700
O          7.79100        1.43400        7.03500
H          7.34600        1.86200        7.78000
C          9.78100       -0.73400        7.68000
H         10.35800        0.14300        7.88800
H          9.96400       -1.02800        6.63300
H         10.27800       -1.48700        8.27700
H          1.46800        4.58600       -1.24300
C          1.30500        4.29300       -0.18300
C          2.28600        3.10500        0.08800
H          1.44400        5.02900        0.58200
H          0.30200        3.90800       -0.21200
H          3.34700        3.43700        0.09700
H          2.16400        2.28300       -0.65000
C          2.23700        2.57400        1.48500
C          2.94600        1.27800        1.43000
H          2.78500        3.23100        2.15400
H          4.02000        1.33500        1.08600
H          2.45300        0.59900        0.70700
O          0.93100        2.40100        2.10000
H          0.68400        1.51900        1.96400
C          2.89300        0.43100        2.74900
H          1.83500        0.13800        3.01600
H          3.43700        0.93100        3.61100
H          3.35900       -0.60000        2.49100


