%chk=C10H24O2_pair_067_089.chk
%nproc=8
%mem=8000Mb
#p opt b3lyp/6-31G**

Conformer number 539. Energy MM = 0.000 kcal/mol

0 1
H          7.87500        1.16800       20.95800
C          7.07700        0.61000       20.42100
C          5.86600        1.45100       19.95500
H          7.51900        0.07100       19.55200
H          6.64100       -0.12400       21.10100
H          5.50900        2.07600       20.80700
H          5.03400        0.79300       19.86300
C          5.90700        2.26100       18.78000
C          6.02900        1.56100       17.49700
H          4.98500        2.86600       18.77900
H          5.43800        0.64900       17.37700
H          7.12100        1.23300       17.35000
O          7.07200        3.11600       18.88400
H          6.93100        3.44400       19.73000
C          5.74500        2.52400       16.37900
H          5.70900        2.22600       15.35200
H          6.50300        3.30800       16.44900
H          4.77500        2.95900       16.58500
H         12.13100        1.87700       19.57100
C         11.51100        1.22200       20.21000
C         11.33100        2.09400       21.52500
H         10.59400        0.87200       19.70500
H         12.04800        0.34400       20.41300
H         12.18200        1.85200       22.13200
H         10.47600        1.69600       22.14900
C         11.10000        3.51200       21.40100
C         11.21300        4.07500       22.72000
H         11.72000        4.00200       20.64500
H         12.18000        3.79100       23.12500
H         10.47300        3.61800       23.35500
O          9.76000        3.79000       20.97500
H          9.69000        3.58800       20.01300
C         10.81600        5.57000       22.90400
H          9.71900        5.75900       22.65400
H         11.44800        6.31800       22.44100
H         10.92500        5.78800       24.00400


