%chk=C10H24O2_pair_055_093.chk
%nproc=8
%mem=8000Mb
#p opt b3lyp/6-31G**

Conformer number 485. Energy MM = 0.000 kcal/mol

0 1
H          3.02300       17.04200       15.56300
C          3.19300       17.73500       14.67900
C          2.88400       19.22200       15.16500
H          4.20800       17.65100       14.40200
H          2.62700       17.47800       13.75400
H          1.95000       19.42900       15.65800
H          2.78100       19.77300       14.21400
C          3.98200       19.79400       16.00800
C          3.78600       21.24000       16.21100
H          4.00100       19.16300       16.90500
H          2.75100       21.53500       16.53800
H          3.81900       21.70500       15.17700
O          5.23600       19.67400       15.34000
H          5.92600       19.51200       15.97700
C          4.80700       21.98600       17.08200
H          4.71700       21.84500       18.18800
H          4.68000       23.06800       16.94400
H          5.85500       21.61800       16.88700
H          8.95700       19.16500       11.97900
C          8.04900       19.78400       11.76400
C          7.96500       20.85700       12.88300
H          8.19600       20.35600       10.90800
H          7.26900       19.05200       11.57000
H          8.71900       21.61100       12.71500
H          8.14400       20.42200       13.91300
C          6.74100       21.64100       12.92200
C          6.70700       22.69100       13.95900
H          6.55300       22.03600       11.93000
H          7.71800       23.14100       14.17300
H          6.36900       22.21900       14.86600
O          5.60000       20.75100       13.09200
H          5.51700       20.56900       14.00100
C          5.61200       23.77200       13.70400
H          5.43900       24.46900       14.58000
H          4.68200       23.24500       13.54800
H          5.71900       24.46900       12.87400


