%chk=C10H24O2_pair_039_063.chk
%nproc=8
%mem=8000Mb
#p opt b3lyp/6-31G**

Conformer number 378. Energy MM = 0.000 kcal/mol

0 1
H         14.27000       24.12400        8.90300
C         14.36600       23.19800        8.37400
C         15.16600       22.11400        9.13900
H         13.35300       22.92100        8.17600
H         14.79100       23.55600        7.41900
H         16.17600       22.56000        9.38200
H         15.31200       21.27600        8.48000
C         14.56800       21.68900       10.40700
C         13.19900       21.21700       10.10800
H         15.10200       20.83500       10.75800
H         13.19900       20.63800        9.13700
H         12.52500       22.08900        9.97100
O         14.43300       22.63300       11.51200
H         15.30100       23.04800       11.62600
C         12.55500       20.46500       11.25300
H         11.66700       19.77600       11.03200
H         12.26000       21.05200       12.17800
H         13.21700       19.73000       11.67300
H          8.52200       20.71600        3.22600
C          7.82400       21.19600        3.87300
C          8.25900       21.19200        5.34100
H          7.70500       22.22800        3.51900
H          6.90300       20.61500        3.73100
H          7.39400       21.63800        5.86100
H          9.03200       21.94400        5.48100
C          8.67500       19.93100        5.86800
C          9.23200       20.07000        7.21000
H          7.83400       19.34300        6.06100
H          8.40200       20.41800        7.83700
H         10.05100       20.87400        7.24300
O          9.55300       19.25600        5.02400
H         10.46400       19.37900        5.33100
C          9.84900       18.89200        7.94100
H         10.22200       19.17900        8.91800
H         10.68700       18.34300        7.34900
H          9.08700       18.09500        8.12600


