%chk=C10H24O2_pair_026_089.chk
%nproc=8
%mem=8000Mb
#p opt b3lyp/6-31G**

Conformer number 275. Energy MM = 0.000 kcal/mol

0 1
H          6.34900       22.80300       26.44900
C          6.75100       22.74700       25.43600
C          8.11000       22.05000       25.35800
H          6.14200       22.24300       24.76600
H          6.93800       23.80100       25.03600
H          8.03100       21.07800       25.85500
H          8.79100       22.63300       25.98300
C          8.63600       21.78400       24.03100
C          8.80000       22.97800       23.28200
H          9.65100       21.23700       24.07200
H          9.60600       23.54400       23.78100
H          7.93500       23.59100       23.27800
O          7.75600       20.94200       23.19100
H          6.84900       20.87700       23.51400
C          9.31900       22.75100       21.84400
H         10.21200       22.13900       21.79300
H          9.53900       23.73000       21.35800
H          8.50800       22.27500       21.24200
H         12.13100       26.33900       19.57100
C         11.51100       25.68400       20.21000
C         11.33100       26.55600       21.52500
H         10.59400       25.33400       19.70500
H         12.04800       24.80600       20.41300
H         12.18200       26.31400       22.13200
H         10.47600       26.15800       22.14900
C         11.10000       27.97400       21.40100
C         11.21300       28.53700       22.72000
H         11.72000       28.46400       20.64500
H         12.18000       28.25300       23.12500
H         10.47300       28.08000       23.35500
O          9.76000       28.25200       20.97500
H          9.69000       28.05000       20.01300
C         10.81600       30.03200       22.90400
H          9.71900       30.22100       22.65400
H         11.44800       30.78000       22.44100
H         10.92500       30.25000       24.00400


