%chk=C10H24O2_pair_069_080.chk
%nproc=8
%mem=8000Mb
#p opt b3lyp/6-31G**

Conformer number 551. Energy MM = 0.000 kcal/mol

0 1
H         14.07600        9.77300        7.00600
C         13.33500       10.37000        6.43500
C         11.94700        9.76900        6.89000
H         13.45600       11.42400        6.68900
H         13.49700       10.30300        5.32600
H         11.83100        8.73300        6.50500
H         11.20700       10.36200        6.43400
C         11.72700        9.79200        8.37400
C         10.51200        9.08800        8.70200
H         12.58300        9.28300        8.82400
H          9.65100        9.47000        8.14600
H         10.30200        9.21800        9.80000
O         11.64800       11.10900        8.85800
H         12.54100       11.43800        8.80100
C         10.67000        7.57900        8.59900
H         10.70100        7.12600        7.51700
H          9.83300        7.15100        9.13100
H         11.62300        7.30000        9.08200
H          9.44700        3.41500        6.17600
C         10.53800        3.38900        6.40800
C         11.34700        4.16800        5.43600
H         10.68400        3.91200        7.39300
H         10.96600        2.41200        6.68300
H         12.43800        4.05100        5.71300
H         11.28400        5.28700        5.52700
C         11.23500        3.92400        3.97800
C         12.16100        4.69000        3.17300
H         11.41700        2.76200        3.73300
H         13.22600        4.49900        3.52800
H         11.82000        5.79400        3.32500
O          9.95100        4.33300        3.44400
H          9.31900        3.80400        3.92700
C         12.08700        4.19700        1.71900
H         12.79600        4.82000        1.04300
H         11.00300        4.36900        1.39300
H         12.35800        3.20000        1.71700


