%chk=C10H24O2_pair_059_068.chk
%nproc=8
%mem=8000Mb
#p opt b3lyp/6-31G**

Conformer number 500. Energy MM = 0.000 kcal/mol

0 1
H          6.07100       19.73600       21.29400
C          5.48200       20.32900       20.54900
C          5.11400       21.74500       21.13900
H          6.13100       20.53600       19.67000
H          4.58800       19.74500       20.12800
H          4.72500       22.48200       20.37600
H          5.94300       22.19700       21.60500
C          4.23200       21.46900       22.26800
C          3.44700       22.67800       22.58100
H          3.37200       20.84200       21.82200
H          2.80900       23.02400       21.67400
H          4.15100       23.50700       22.72300
O          4.91300       20.90000       23.37000
H          4.20100       20.43800       23.90700
C          2.39200       22.42000       23.66800
H          1.73000       21.59100       23.32300
H          2.00900       23.39400       23.96100
H          2.95100       22.15600       24.65700
H          3.07600       16.26600       20.28000
C          2.53400       16.61900       19.47400
C          2.39800       15.57700       18.37600
H          3.10900       17.46500       19.12800
H          1.58000       17.10200       19.86400
H          3.40900       15.35100       18.18700
H          1.80700       15.88900       17.52800
C          1.75500       14.36900       18.88500
C          0.34300       14.43700       19.37400
H          2.39300       13.92800       19.67100
H         -0.22600       14.73300       18.50800
H          0.11000       15.23100       20.10700
O          1.77800       13.31300       17.84800
H          2.70000       13.28500       17.50300
C         -0.17000       13.01700       19.91900
H          0.25700       12.66400       20.85900
H          0.04200       12.23100       19.20800
H         -1.25400       12.90500       20.10000


