%chk=C10H24O2_pair_046_094.chk
%nproc=8
%mem=8000Mb
#p opt b3lyp/6-31G**

Conformer number 434. Energy MM = 0.000 kcal/mol

0 1
H         22.52900        8.46200       20.81800
C         21.99900        8.63300       19.91200
C         22.65500        7.76900       18.74200
H         20.96100        8.39800       20.11700
H         22.20100        9.67300       19.56900
H         23.72600        7.97000       18.72400
H         22.33200        8.08700       17.79100
C         22.35600        6.32600       18.88900
C         22.88200        5.56200       17.76000
H         22.91400        5.94000       19.80500
H         23.93000        5.73500       17.61600
H         22.24800        5.98000       16.86800
O         21.03100        6.07600       18.95700
H         20.75300        5.90700       19.87700
C         22.57400        4.05800       17.94000
H         21.47400        3.98500       17.99800
H         22.88600        3.52400       18.85000
H         22.97100        3.52200       17.05400
H         23.03800       13.46800       12.92900
C         23.72900       13.34800       13.82200
C         23.69800       11.92400       14.38900
H         24.77900       13.71100       13.57000
H         23.25400       14.13500       14.55700
H         24.04100       11.25300       13.59600
H         22.60900       11.70000       14.63200
C         24.57300       11.69600       15.55300
C         24.68100       10.29400       15.92400
H         25.63300       12.09600       15.28800
H         25.03900        9.61000       15.10700
H         23.58200        9.95400       15.87900
O         24.08000       12.50600       16.65700
H         24.77900       12.86300       17.23600
C         25.43400        9.97500       17.28200
H         25.49900        8.94500       17.61000
H         25.07000       10.50200       18.15500
H         26.50200       10.34900       17.15000


