%chk=C10H24O2_pair_028_048.chk
%nproc=8
%mem=8000Mb
#p opt b3lyp/6-31G**

Conformer number 287. Energy MM = 0.000 kcal/mol

0 1
H         10.04500       13.26300        3.68000
C          9.60900       14.11800        3.07600
C          8.71000       15.07300        3.94600
H         10.53200       14.69700        2.82800
H          9.20900       13.72700        2.08800
H          9.13500       15.29400        4.95400
H          7.78400       14.52900        4.18500
C          8.34300       16.37800        3.39000
C          7.67800       16.41600        2.06800
H          7.58400       16.79800        4.02600
H          6.67000       15.96200        2.13800
H          8.32200       16.02500        1.28400
O          9.45200       17.28400        3.29600
H          9.30800       18.03400        3.93100
C          7.42300       17.86800        1.71800
H          8.25300       18.34400        1.16000
H          7.29100       18.43800        2.72300
H          6.54100       18.05700        1.19200
H         10.14800       14.18900        6.18100
C         10.74600       14.61500        6.96700
C         11.64900       15.63500        6.39000
H         10.05800       14.99100        7.75400
H         11.27300       13.75500        7.47700
H         12.09400       16.22000        7.18900
H         10.91300       16.26200        5.80100
C         12.71800       15.19900        5.46600
C         13.71400       14.27800        5.97100
H         12.03800       14.61900        4.81800
H         14.18000       13.83100        5.10000
H         13.20600       13.38900        6.52300
O         13.16900       16.33700        4.78700
H         13.00900       16.16800        3.82600
C         14.83500       14.97200        6.74100
H         15.48800       15.53700        5.99500
H         15.44200       14.24200        7.22600
H         14.52700       15.61000        7.55100


