%chk=C10H24O2_pair_041_065.chk
%nproc=8
%mem=8000Mb
#p opt b3lyp/6-31G**

Conformer number 398. Energy MM = 0.000 kcal/mol

0 1
H         16.23400       15.33000       10.90200
C         15.45300       14.60500       11.19500
C         15.71400       13.26100       10.44400
H         15.37400       14.63200       12.29600
H         14.56000       15.08500       10.85100
H         16.74300       12.92200       10.82000
H         15.88300       13.50800        9.37500
C         14.61700       12.29700       10.60400
C         14.92000       10.86600       10.40700
H         14.25800       12.37400       11.62900
H         13.99800       10.31600       10.45200
H         15.62400       10.55000       11.25700
O         13.48000       12.64700        9.78400
H         13.17700       13.49900       10.06500
C         15.64500       10.53700        9.12200
H         16.44600       11.25500        8.90400
H         14.96800       10.68700        8.32900
H         16.15600        9.56900        9.12300
H         18.59700       16.65800       14.05900
C         19.42800       16.50200       13.32600
C         19.17000       15.33400       12.40200
H         19.38500       17.47200       12.76100
H         20.41800       16.45300       13.89900
H         20.00200       15.35500       11.64300
H         18.17000       15.66100       11.95100
C         18.99000       13.94400       12.91200
C         17.91100       13.78200       13.83700
H         18.64100       13.41900       12.07600
H         17.02800       14.39900       13.59600
H         18.23400       14.20100       14.83500
O         20.16200       13.35900       13.38200
H         20.32200       13.73900       14.25200
C         17.25600       12.36700       14.08600
H         16.56100       12.53500       14.96000
H         17.86900       11.49800       14.41800
H         16.67600       12.08600       13.20600


