%chk=C10H24O2_pair_020_033.chk
%nproc=8
%mem=8000Mb
#p opt b3lyp/6-31G**

Conformer number 212. Energy MM = 0.000 kcal/mol

0 1
H         15.19500        7.26900        9.71900
C         14.17000        6.96500        9.57200
C         14.04400        6.80200        8.06300
H         14.13700        5.97000       10.06700
H         13.51600        7.73300       10.00700
H         14.15300        7.79800        7.58000
H         13.06100        6.43300        7.83200
C         14.94500        5.74900        7.44700
C         16.36100        6.15000        7.66200
H         14.79800        4.72800        7.79400
H         16.62000        6.12600        8.71100
H         16.49600        7.25900        7.37900
O         14.70800        5.70800        6.05600
H         15.06500        4.83500        5.77300
C         17.43000        5.24400        6.93600
H         17.43800        4.20400        7.30100
H         18.46500        5.62100        7.06500
H         17.31000        5.12700        5.81500
H         14.06500        2.54300        9.94500
C         13.09600        2.48300        9.50300
C         12.06700        3.32400       10.10500
H         13.23200        2.72000        8.45400
H         12.75200        1.43400        9.52400
H         11.14600        3.11500        9.58300
H         12.34100        4.37200        9.91600
C         11.87500        3.13700       11.52900
C         11.40200        4.43500       12.08700
H         11.07600        2.39100       11.78000
H         10.78700        4.99100       11.41900
H         12.33900        4.91500       12.20600
O         13.14900        2.76100       12.21000
H         13.09700        1.74800       12.29100
C         10.76300        4.10600       13.43100
H          9.83500        3.58800       13.28900
H         10.56500        4.84400       14.20400
H         11.31800        3.33100       13.95100


