%chk=C10H24O2_pair_006_072.chk
%nproc=8
%mem=8000Mb
#p opt b3lyp/6-31G**

Conformer number 075. Energy MM = 0.000 kcal/mol

0 1
H          5.20400        1.78700        6.55400
C          5.06300        0.71100        6.51400
C          5.91000       -0.04600        7.51800
H          4.06900        0.44000        6.79800
H          5.31800        0.47200        5.40700
H          5.66000       -1.15000        7.58300
H          5.78200        0.33200        8.50600
C          7.33200        0.03600        7.17500
C          8.28700       -0.69100        8.03900
H          7.44100       -0.38200        6.15400
H          7.97300       -1.77800        8.21800
H          8.28700       -0.29000        9.04700
O          7.79100        1.43400        7.03500
H          7.34600        1.86200        7.78000
C          9.78100       -0.73400        7.68000
H         10.35800        0.14300        7.88800
H          9.96400       -1.02800        6.63300
H         10.27800       -1.48700        8.27700
H          5.85600        3.60400        3.61100
C          5.97600        3.05400        2.67300
C          6.50000        1.65300        3.03300
H          5.07800        3.04100        2.10600
H          6.75900        3.57400        2.09000
H          6.49300        0.98700        2.15000
H          5.97500        1.17800        3.83400
C          7.87100        1.69000        3.50300
C          8.47100        0.35100        3.65400
H          8.48400        2.27600        2.78000
H          8.61700       -0.07500        2.65500
H          7.68600       -0.23400        4.19700
O          7.99700        2.45000        4.69100
H          7.84300        1.84300        5.41300
C          9.81400        0.26800        4.31300
H         10.20300       -0.74100        4.45800
H          9.64700        0.61500        5.38600
H         10.57800        0.85400        3.78300


