%chk=C10H24O2_pair_030_083.chk
%nproc=8
%mem=8000Mb
#p opt b3lyp/6-31G**

Conformer number 312. Energy MM = 0.000 kcal/mol

0 1
H         12.95100       17.70300       10.47600
C         12.27500       17.34500        9.70700
C         10.94000       16.79900       10.15700
H         12.01400       18.13200        8.95800
H         12.72600       16.60900        9.07400
H         10.45300       16.57900        9.22800
H         10.29700       17.57300       10.63800
C         10.82200       15.63300       10.97200
C         11.39000       15.76900       12.29500
H          9.77100       15.46700       11.16300
H         12.51500       15.67000       12.17500
H         11.10500       14.87700       12.89500
O         11.38300       14.47700       10.31400
H         11.14300       13.74400       10.86300
C         11.17800       17.08800       13.05200
H         10.15200       17.39300       13.12100
H         11.64600       17.97900       12.59800
H         11.46000       16.92100       14.13700
H          7.92700       16.04000       18.90300
C          7.12300       16.78700       19.18000
C          6.08900       16.75100       18.09400
H          6.67500       16.56500       20.14300
H          7.59400       17.78400       19.24100
H          5.25700       17.52100       18.29000
H          5.57800       15.75700       18.01600
C          6.74300       17.08900       16.78900
C          7.74900       16.14800       16.24200
H          6.04400       17.06700       15.96700
H          7.09400       15.17100       16.13800
H          8.53000       15.84400       16.89900
O          7.13600       18.49500       16.78600
H          7.76900       18.47100       17.53300
C          8.24500       16.60600       14.84300
H          9.06300       16.08400       14.54700
H          8.49500       17.66200       14.94300
H          7.52400       16.52300       14.07600


