%chk=C10H24O2_pair_010_021.chk
%nproc=8
%mem=8000Mb
#p opt b3lyp/6-31G**

Conformer number 109. Energy MM = 0.000 kcal/mol

0 1
H          2.58800        3.91500       12.36700
C          3.48600        3.27800       12.62100
C          2.95500        1.81900       12.82900
H          4.20300        3.39200       11.73800
H          3.94300        3.60800       13.49500
H          2.19300        1.72700       13.58700
H          3.76800        1.24100       13.05400
C          2.23300        1.34400       11.65200
C          3.01600        1.19000       10.40400
H          1.81900        0.36000       11.96000
H          3.79800        0.38400       10.58700
H          3.57100        2.09700       10.18200
O          1.07900        2.17900       11.60000
H          0.47600        1.69300       10.96100
C          2.22500        0.72600        9.17300
H          1.40700        1.44700        8.92900
H          1.91900       -0.28600        9.25600
H          2.87400        0.63400        8.34300
H          0.57600        3.06400       14.60200
C         -0.42200        2.94400       14.35300
C         -1.04400        4.29600       14.16800
H         -0.51400        2.29900       13.46900
H         -0.92000        2.29000       15.15400
H         -1.01000        4.78600       15.13600
H         -2.16000        4.19200       13.81100
C         -0.30300        5.14700       13.23500
C         -0.93600        6.48400       13.08600
H          0.68900        5.32800       13.61100
H         -2.03200        6.29300       12.80900
H         -0.51800        6.96700       12.15300
O         -0.35700        4.53600       11.91400
H          0.13300        3.73900       11.88400
C         -0.87900        7.37300       14.35900
H          0.16100        7.59400       14.51700
H         -1.33300        6.88700       15.22600
H         -1.36500        8.33900       14.14500


