%chk=C10H24O2_pair_004_051.chk
%nproc=8
%mem=8000Mb
#p opt b3lyp/6-31G**

Conformer number 051. Energy MM = 0.000 kcal/mol

0 1
H         17.94100       21.31000        5.92100
C         17.92600       22.31100        6.41200
C         18.84500       23.41300        5.80800
H         16.85500       22.61200        6.36000
H         18.15400       22.09200        7.47900
H         18.69300       24.37200        6.27100
H         18.40700       23.63300        4.75500
C         20.24900       23.03900        5.71800
C         21.16700       24.00600        5.10300
H         20.65900       23.01200        6.75300
H         22.18200       23.62000        5.14700
H         21.15700       24.90100        5.75800
O         20.47700       21.75300        5.15900
H         19.95400       21.81200        4.31000
C         20.90200       24.42100        3.67100
H         21.52700       25.25900        3.29300
H         19.88900       24.81000        3.50200
H         21.07800       23.55700        3.01100
H         22.09300       20.56200       -1.02000
C         22.78300       20.69300       -0.18600
C         22.08300       20.98500        1.15400
H         23.24200       19.71700       -0.14800
H         23.60600       21.44400       -0.46100
H         21.33500       20.22000        1.32600
H         21.59900       21.95000        1.19400
C         22.95600       21.05600        2.40700
C         24.00600       22.07800        2.33000
H         22.37100       21.47100        3.28200
H         23.48200       23.02900        2.18300
H         24.82000       21.92000        1.58700
O         23.51800       19.80500        2.82400
H         22.80500       19.20700        2.90400
C         24.75600       22.20900        3.73100
H         25.34700       23.13900        3.75900
H         25.45900       21.32800        3.93500
H         24.09600       22.47200        4.59000


