%chk=C10H24O2_pair_030_048.chk
%nproc=8
%mem=8000Mb
#p opt b3lyp/6-31G**

Conformer number 308. Energy MM = 0.000 kcal/mol

0 1
H         12.95100       17.70300       10.47600
C         12.27500       17.34500        9.70700
C         10.94000       16.79900       10.15700
H         12.01400       18.13200        8.95800
H         12.72600       16.60900        9.07400
H         10.45300       16.57900        9.22800
H         10.29700       17.57300       10.63800
C         10.82200       15.63300       10.97200
C         11.39000       15.76900       12.29500
H          9.77100       15.46700       11.16300
H         12.51500       15.67000       12.17500
H         11.10500       14.87700       12.89500
O         11.38300       14.47700       10.31400
H         11.14300       13.74400       10.86300
C         11.17800       17.08800       13.05200
H         10.15200       17.39300       13.12100
H         11.64600       17.97900       12.59800
H         11.46000       16.92100       14.13700
H         10.14800       14.18900        6.18100
C         10.74600       14.61500        6.96700
C         11.64900       15.63500        6.39000
H         10.05800       14.99100        7.75400
H         11.27300       13.75500        7.47700
H         12.09400       16.22000        7.18900
H         10.91300       16.26200        5.80100
C         12.71800       15.19900        5.46600
C         13.71400       14.27800        5.97100
H         12.03800       14.61900        4.81800
H         14.18000       13.83100        5.10000
H         13.20600       13.38900        6.52300
O         13.16900       16.33700        4.78700
H         13.00900       16.16800        3.82600
C         14.83500       14.97200        6.74100
H         15.48800       15.53700        5.99500
H         15.44200       14.24200        7.22600
H         14.52700       15.61000        7.55100


