%chk=C10H24O2_pair_035_067.chk
%nproc=8
%mem=8000Mb
#p opt b3lyp/6-31G**

Conformer number 347. Energy MM = 0.000 kcal/mol

0 1
H          2.39900        1.38200       21.67800
C          1.69200        1.13400       20.84400
C          2.38000        1.00300       19.56200
H          1.09800        0.26700       21.13000
H          1.04300        1.95100       20.89400
H          3.11900        0.17000       19.76600
H          2.94500        1.95200       19.26800
C          1.62300        0.63700       18.35200
C          2.43800        0.50500       17.19300
H          1.21600       -0.35200       18.55200
H          3.16700       -0.26500       17.49900
H          2.99400        1.51000       17.08500
O          0.49600        1.49000       18.24000
H         -0.09500        0.94500       17.79000
C          1.81900        0.16800       15.89000
H          2.62900        0.15900       15.17800
H          1.08000        0.97200       15.70200
H          1.24600       -0.82000       15.81600
H          7.87500        1.16800       20.95800
C          7.07700        0.61000       20.42100
C          5.86600        1.45100       19.95500
H          7.51900        0.07100       19.55200
H          6.64100       -0.12400       21.10100
H          5.50900        2.07600       20.80700
H          5.03400        0.79300       19.86300
C          5.90700        2.26100       18.78000
C          6.02900        1.56100       17.49700
H          4.98500        2.86600       18.77900
H          5.43800        0.64900       17.37700
H          7.12100        1.23300       17.35000
O          7.07200        3.11600       18.88400
H          6.93100        3.44400       19.73000
C          5.74500        2.52400       16.37900
H          5.70900        2.22600       15.35200
H          6.50300        3.30800       16.44900
H          4.77500        2.95900       16.58500


