%chk=C10H24O2_pair_053_095.chk
%nproc=8
%mem=8000Mb
#p opt b3lyp/6-31G**

Conformer number 473. Energy MM = 0.000 kcal/mol

0 1
H         13.17900       14.02300        0.61300
C         12.40300       14.77600        0.95500
C         12.82500       16.18100        0.60800
H         11.41400       14.55600        0.57700
H         12.23200       14.57700        1.98700
H         12.84700       16.36200       -0.46300
H         13.77900       16.28300        1.04200
C         11.88300       17.11400        1.14400
C         12.13400       18.54500        0.92900
H         10.81500       16.86500        0.65100
H         12.16400       18.74500       -0.09100
H         13.14800       18.71100        1.45400
O         11.81900       16.86800        2.52700
H         10.90600       17.08900        2.81500
C         11.07900       19.50500        1.51800
H         10.94000       19.26500        2.56500
H         10.21600       19.48900        0.86100
H         11.46900       20.56900        1.48500
H         12.19600       16.87700       -3.29900
C         12.44500       17.92000       -2.93900
C         11.39400       18.94000       -3.42200
H         12.69100       17.88700       -1.78800
H         13.40700       18.00000       -3.45800
H         11.26200       18.89900       -4.52000
H         11.84700       19.95300       -3.41400
C         10.09600       18.82200       -2.80900
C          9.53400       17.47500       -2.70200
H         10.14900       19.27100       -1.69700
H         10.13500       16.71800       -2.09800
H          9.38800       17.07600       -3.74700
O          9.22000       19.65200       -3.55600
H          8.74100       20.12800       -2.87000
C          8.13500       17.46000       -2.09000
H          7.83000       16.43300       -2.09200
H          7.48700       18.05800       -2.69900
H          8.19400       17.83700       -1.07300


