%chk=C10H24O2_pair_085_097.chk
%nproc=8
%mem=8000Mb
#p opt b3lyp/6-31G**

Conformer number 593. Energy MM = 0.000 kcal/mol

0 1
H         18.01800       15.73400        5.93300
C         18.51600       16.47900        6.62200
C         17.86100       16.73700        8.03000
H         19.58700       16.41300        6.82100
H         18.30600       17.43100        6.01700
H         17.81000       15.82700        8.68200
H         16.80800       16.85300        7.65500
C         18.34400       17.92700        8.70600
C         17.81800       18.17400       10.01100
H         19.42400       17.71700        8.90500
H         18.31200       19.01500       10.57900
H         18.06700       17.30600       10.64800
O         18.15500       19.01200        7.89700
H         18.94600       19.22700        7.43200
C         16.29900       18.20500       10.04900
H         15.87400       18.86800        9.23200
H         15.95200       18.68300       11.05900
H         15.85900       17.25500        9.93800
H         15.76200       16.56800       14.49700
C         15.54100       17.19900       13.63900
C         15.68900       18.59200       14.16000
H         16.13600       16.96700       12.73600
H         14.51800       16.98900       13.36000
H         15.51700       19.29000       13.29000
H         16.77300       18.73300       14.37300
C         14.85300       19.04200       15.26000
C         14.92800       20.40700       15.77400
H         13.74500       18.99900       14.89400
H         14.29600       20.36600       16.65100
H         14.31700       21.08400       15.19000
O         14.97700       18.27100       16.45800
H         14.30700       17.59200       16.42800
C         16.28300       20.89600       16.24800
H         16.78200       20.00600       16.65100
H         16.45100       21.58300       17.09500
H         16.84400       21.22200       15.40100


