%chk=C10H24O2_pair_055_074.chk
%nproc=8
%mem=8000Mb
#p opt b3lyp/6-31G**

Conformer number 481. Energy MM = 0.000 kcal/mol

0 1
H          3.02300       17.04200       15.56300
C          3.19300       17.73500       14.67900
C          2.88400       19.22200       15.16500
H          4.20800       17.65100       14.40200
H          2.62700       17.47800       13.75400
H          1.95000       19.42900       15.65800
H          2.78100       19.77300       14.21400
C          3.98200       19.79400       16.00800
C          3.78600       21.24000       16.21100
H          4.00100       19.16300       16.90500
H          2.75100       21.53500       16.53800
H          3.81900       21.70500       15.17700
O          5.23600       19.67400       15.34000
H          5.92600       19.51200       15.97700
C          4.80700       21.98600       17.08200
H          4.71700       21.84500       18.18800
H          4.68000       23.06800       16.94400
H          5.85500       21.61800       16.88700
H          5.80000       14.70800       13.78100
C          4.77100       14.52600       13.45200
C          4.02800       13.95100       14.59500
H          4.40600       15.50100       13.09600
H          4.90600       13.76000       12.60400
H          3.11200       13.48300       14.23300
H          3.63300       14.69700       15.29600
C          4.72100       12.98900       15.45600
C          5.46300       11.84900       14.89700
H          5.41100       13.64300       16.03900
H          5.85400       11.29600       15.76700
H          6.43500       12.13900       14.31000
O          3.79800       12.54400       16.44800
H          4.37000       12.14700       17.12000
C          4.60700       10.87800       14.22000
H          3.53800       10.99100       14.50500
H          4.90000        9.82000       14.39900
H          4.66300       11.15600       13.17200


