%chk=C10H24O2_pair_062_096.chk
%nproc=8
%mem=8000Mb
#p opt b3lyp/6-31G**

Conformer number 520. Energy MM = 0.000 kcal/mol

0 1
H         19.03600       19.39800       17.00600
C         19.34700       20.33400       17.52400
C         19.86200       20.01800       18.90100
H         19.97900       20.96200       16.87400
H         18.39100       20.90900       17.57700
H         19.08400       19.66800       19.61200
H         20.30400       20.89200       19.33300
C         20.85300       18.90500       18.87800
C         21.44200       18.41700       20.09800
H         20.23600       18.02400       18.46700
H         20.57200       18.09400       20.79200
H         21.91200       19.35400       20.55800
O         21.90600       19.34700       18.01900
H         21.75700       19.07700       17.13000
C         22.39500       17.18400       19.92200
H         22.88400       17.01300       20.90400
H         23.11000       17.35800       19.14000
H         21.73000       16.28900       19.64400
H         13.80000       26.06700       18.68600
C         14.40000       26.71700       18.01400
C         15.60900       27.02700       18.86900
H         14.56900       26.12400       17.15400
H         13.92500       27.68500       17.70000
H         15.22900       27.66100       19.67200
H         16.33000       27.60700       18.23800
C         16.13100       25.78800       19.46700
C         16.74800       24.84200       18.59000
H         16.87800       26.08000       20.24200
H         17.62700       25.29400       17.96900
H         16.01200       24.48700       17.78800
O         15.03400       25.18500       20.13700
H         14.70300       25.86900       20.79600
C         17.37400       23.74300       19.42300
H         18.19800       24.15900       20.00800
H         17.80800       22.87000       18.91200
H         16.69700       23.24500       20.17800


