%chk=C10H24O2_pair_001_019.chk
%nproc=8
%mem=8000Mb
#p opt b3lyp/6-31G**

Conformer number 013. Energy MM = 0.000 kcal/mol

0 1
H         15.44800       12.97300       17.13200
C         15.79600       12.90600       18.11800
C         15.40400       14.17100       18.92200
H         15.14500       12.12200       18.50300
H         16.78800       12.61400       18.20000
H         15.60000       13.89900       19.98900
H         14.31100       14.39400       18.79000
C         16.11100       15.32100       18.49100
C         15.84500       16.63600       19.19500
H         17.19700       15.07300       18.62700
H         15.78500       16.48600       20.25100
H         14.85000       17.02100       18.92300
O         15.97100       15.61000       17.10900
H         16.32800       16.49800       16.89100
C         17.04400       17.72700       19.04200
H         17.03600       18.57200       19.65100
H         17.07300       18.10200       18.03400
H         17.95000       17.14600       19.34800
H          9.76000       13.63700       22.33400
C         10.39200       13.75300       21.44800
C         11.89400       13.59800       21.70700
H         10.08900       12.91300       20.81400
H         10.21800       14.71500       20.98400
H         12.29000       14.44400       22.30500
H         12.45400       13.76100       20.73400
C         12.40300       12.25200       22.09600
C         13.81100       11.91600       21.85200
H         12.27200       12.32000       23.18300
H         14.20700       11.95700       20.80400
H         14.00100       10.81000       22.07400
O         11.50900       11.22500       21.61800
H         10.66400       11.32400       22.08900
C         14.65900       12.75300       22.77300
H         15.73200       12.55400       22.79400
H         14.16400       12.68500       23.77100
H         14.50900       13.81100       22.51300


