%chk=C10H24O2_pair_013_014.chk
%nproc=8
%mem=8000Mb
#p opt b3lyp/6-31G**

Conformer number 140. Energy MM = 0.000 kcal/mol

0 1
H         21.36300       25.24900       19.49200
C         20.69700       25.34300       18.68700
C         20.71100       24.24100       17.63500
H         19.73400       25.30300       19.22800
H         20.75900       26.30900       18.14900
H         19.80500       24.50800       17.16400
H         20.63800       23.22600       18.04000
C         21.85300       24.33100       16.73200
C         21.69900       23.52100       15.42800
H         21.89200       25.36700       16.46300
H         20.99200       24.02300       14.74600
H         21.33100       22.43900       15.63700
O         23.10600       24.13400       17.38400
H         23.00600       23.18700       17.53000
C         23.00700       23.35000       14.68400
H         22.84800       22.98200       13.70600
H         23.65400       22.62700       15.11100
H         23.56700       24.30000       14.62500
H         18.47000       25.28300       21.85000
C         19.05300       24.53700       22.41800
C         18.38700       23.12200       22.56300
H         20.06100       24.49800       21.90800
H         19.22400       25.02000       23.39600
H         18.19200       22.59700       21.60700
H         17.43700       23.31300       23.10700
C         19.15500       22.28400       23.49600
C         18.75000       20.88300       23.65600
H         20.19100       22.39300       23.26200
H         17.63400       20.79400       23.71800
H         19.17800       20.47600       24.68000
O         18.96500       22.88600       24.81300
H         19.30200       23.74400       24.67400
C         19.21600       20.06400       22.46500
H         20.27900       19.93500       22.51100
H         19.04000       20.68500       21.57800
H         18.70300       19.13100       22.35900


