%chk=C10H24O2_pair_009_063.chk
%nproc=8
%mem=8000Mb
#p opt b3lyp/6-31G**

Conformer number 105. Energy MM = 0.000 kcal/mol

0 1
H          4.86300       19.32500        8.21700
C          5.31200       20.22000        7.72500
C          4.22500       20.82300        6.82500
H          5.60500       20.89500        8.59000
H          6.20800       19.97400        7.08200
H          3.91100       20.20300        5.98300
H          4.53000       21.77100        6.34400
C          3.05600       21.08800        7.61900
C          1.92600       21.43900        6.73800
H          2.74200       20.21400        8.14600
H          1.58100       20.52900        6.18500
H          2.24000       22.28300        6.05200
O          3.39400       22.11600        8.48700
H          3.72900       21.68200        9.32800
C          0.68900       22.02600        7.48400
H         -0.23300       22.02600        6.83900
H          0.77000       23.06200        7.79500
H          0.60400       21.48700        8.41200
H          8.52200       20.71600        3.22600
C          7.82400       21.19600        3.87300
C          8.25900       21.19200        5.34100
H          7.70500       22.22800        3.51900
H          6.90300       20.61500        3.73100
H          7.39400       21.63800        5.86100
H          9.03200       21.94400        5.48100
C          8.67500       19.93100        5.86800
C          9.23200       20.07000        7.21000
H          7.83400       19.34300        6.06100
H          8.40200       20.41800        7.83700
H         10.05100       20.87400        7.24300
O          9.55300       19.25600        5.02400
H         10.46400       19.37900        5.33100
C          9.84900       18.89200        7.94100
H         10.22200       19.17900        8.91800
H         10.68700       18.34300        7.34900
H          9.08700       18.09500        8.12600


