%chk=C10H24O2_pair_015_068.chk
%nproc=8
%mem=8000Mb
#p opt b3lyp/6-31G**

Conformer number 167. Energy MM = 0.000 kcal/mol

0 1
H         19.97000       10.36900       18.23100
C         20.01300       11.29400       17.64300
C         21.09900       12.18800       18.12300
H         20.34700       11.08000       16.60300
H         18.97400       11.62600       17.65800
H         22.15600       11.75400       18.10600
H         20.94700       12.47800       19.19700
C         21.21300       13.46300       17.45200
C         19.99600       14.24500       17.57700
H         22.07600       14.07400       17.82100
H         19.89200       14.44500       18.69000
H         19.10300       13.74900       17.23200
O         21.39500       13.24400       16.04700
H         22.21800       12.82100       16.10300
C         20.08700       15.59300       16.90200
H         19.20300       16.22500       17.03500
H         20.29700       15.46100       15.85900
H         20.82200       16.14900       17.35100
H         27.53800       16.26600       20.28000
C         26.99600       16.61900       19.47400
C         26.86000       15.57700       18.37600
H         27.57100       17.46500       19.12800
H         26.04200       17.10200       19.86400
H         27.87100       15.35100       18.18700
H         26.26900       15.88900       17.52800
C         26.21700       14.36900       18.88500
C         24.80500       14.43700       19.37400
H         26.85500       13.92800       19.67100
H         24.23600       14.73300       18.50800
H         24.57200       15.23100       20.10700
O         26.24000       13.31300       17.84800
H         27.16200       13.28500       17.50300
C         24.29200       13.01700       19.91900
H         24.71900       12.66400       20.85900
H         24.50400       12.23100       19.20800
H         23.20800       12.90500       20.10000


