%chk=C10H24O2_pair_029_036.chk
%nproc=8
%mem=8000Mb
#p opt b3lyp/6-31G**

Conformer number 296. Energy MM = 0.000 kcal/mol

0 1
H         12.65800       25.72400       24.33000
C         11.82400       25.12900       24.76000
C         12.25300       23.68300       24.84300
H         11.59000       25.47900       25.73500
H         10.95200       25.36700       24.16100
H         11.54300       23.07100       25.37400
H         13.19800       23.66300       25.43300
C         12.58500       23.11800       23.49900
C         12.91700       21.70100       23.56000
H         11.75700       23.47500       22.77500
H         13.05500       21.31200       22.51500
H         12.05500       21.10400       23.85700
O         13.71400       23.69700       22.91300
H         13.89500       23.12000       22.15800
C         14.17400       21.25000       24.38900
H         13.98600       21.07100       25.41000
H         14.96200       22.06000       24.44800
H         14.64100       20.42000       23.81900
H         15.86800       29.91900       23.97600
C         15.07300       29.92200       23.20900
C         14.92300       28.60100       22.44600
H         14.09800       30.18400       23.64200
H         15.35700       30.77700       22.60900
H         15.70300       28.49800       21.65500
H         14.00500       28.70900       21.84700
C         14.81000       27.36800       23.25200
C         15.87400       27.11600       24.29300
H         13.84300       27.49500       23.78200
H         15.58400       27.84000       25.05700
H         16.86300       27.42400       23.89900
O         14.63600       26.30500       22.33800
H         14.35400       25.54700       22.86200
C         15.93600       25.75200       24.81600
H         14.92700       25.42800       25.15800
H         16.70600       25.50600       25.53500
H         16.14000       25.09700       23.92100


