%chk=C10H24O2_pair_015_084.chk
%nproc=8
%mem=8000Mb
#p opt b3lyp/6-31G**

Conformer number 168. Energy MM = 0.000 kcal/mol

0 1
H         19.97000       10.36900       18.23100
C         20.01300       11.29400       17.64300
C         21.09900       12.18800       18.12300
H         20.34700       11.08000       16.60300
H         18.97400       11.62600       17.65800
H         22.15600       11.75400       18.10600
H         20.94700       12.47800       19.19700
C         21.21300       13.46300       17.45200
C         19.99600       14.24500       17.57700
H         22.07600       14.07400       17.82100
H         19.89200       14.44500       18.69000
H         19.10300       13.74900       17.23200
O         21.39500       13.24400       16.04700
H         22.21800       12.82100       16.10300
C         20.08700       15.59300       16.90200
H         19.20300       16.22500       17.03500
H         20.29700       15.46100       15.85900
H         20.82200       16.14900       17.35100
H         18.16300       13.78300       20.18500
C         18.57900       13.52200       21.13900
C         18.70500       14.75900       22.06900
H         18.02800       12.60900       21.42900
H         19.59300       13.17700       20.85200
H         19.23500       15.46900       21.41700
H         19.46300       14.52300       22.77800
C         17.57600       15.39500       22.67100
C         18.01900       16.69800       23.16500
H         16.81200       15.57400       21.92700
H         18.57400       17.26900       22.51100
H         18.73100       16.56200       24.03500
O         17.11200       14.66900       23.75500
H         16.17100       14.59000       23.68400
C         16.95500       17.64400       23.72900
H         16.53400       17.17100       24.65400
H         16.23700       17.75700       22.96200
H         17.23100       18.64300       24.10100


