%chk=C10H24O2_pair_059_067.chk
%nproc=8
%mem=8000Mb
#p opt b3lyp/6-31G**

Conformer number 499. Energy MM = 0.000 kcal/mol

0 1
H          6.07100       19.73600       21.29400
C          5.48200       20.32900       20.54900
C          5.11400       21.74500       21.13900
H          6.13100       20.53600       19.67000
H          4.58800       19.74500       20.12800
H          4.72500       22.48200       20.37600
H          5.94300       22.19700       21.60500
C          4.23200       21.46900       22.26800
C          3.44700       22.67800       22.58100
H          3.37200       20.84200       21.82200
H          2.80900       23.02400       21.67400
H          4.15100       23.50700       22.72300
O          4.91300       20.90000       23.37000
H          4.20100       20.43800       23.90700
C          2.39200       22.42000       23.66800
H          1.73000       21.59100       23.32300
H          2.00900       23.39400       23.96100
H          2.95100       22.15600       24.65700
H          7.87500       25.63000       20.95800
C          7.07700       25.07200       20.42100
C          5.86600       25.91300       19.95500
H          7.51900       24.53300       19.55200
H          6.64100       24.33800       21.10100
H          5.50900       26.53800       20.80700
H          5.03400       25.25500       19.86300
C          5.90700       26.72300       18.78000
C          6.02900       26.02300       17.49700
H          4.98500       27.32800       18.77900
H          5.43800       25.11100       17.37700
H          7.12100       25.69500       17.35000
O          7.07200       27.57800       18.88400
H          6.93100       27.90600       19.73000
C          5.74500       26.98600       16.37900
H          5.70900       26.68800       15.35200
H          6.50300       27.77000       16.44900
H          4.77500       27.42100       16.58500


