%chk=C10H24O2_pair_004_086.chk
%nproc=8
%mem=8000Mb
#p opt b3lyp/6-31G**

Conformer number 055. Energy MM = 0.000 kcal/mol

0 1
H         17.94100       21.31000        5.92100
C         17.92600       22.31100        6.41200
C         18.84500       23.41300        5.80800
H         16.85500       22.61200        6.36000
H         18.15400       22.09200        7.47900
H         18.69300       24.37200        6.27100
H         18.40700       23.63300        4.75500
C         20.24900       23.03900        5.71800
C         21.16700       24.00600        5.10300
H         20.65900       23.01200        6.75300
H         22.18200       23.62000        5.14700
H         21.15700       24.90100        5.75800
O         20.47700       21.75300        5.15900
H         19.95400       21.81200        4.31000
C         20.90200       24.42100        3.67100
H         21.52700       25.25900        3.29300
H         19.88900       24.81000        3.50200
H         21.07800       23.55700        3.01100
H         20.12700       19.53800        3.39400
C         19.21900       18.86500        3.52200
C         17.96000       19.37300        2.73200
H         19.68300       18.00000        3.12500
H         19.12700       18.64600        4.55300
H         17.02800       18.77800        2.89800
H         18.22600       19.25400        1.66600
C         17.68900       20.75600        2.95100
C         16.57400       21.25400        2.22300
H         17.39400       20.90200        3.99100
H         15.65900       20.77600        2.56600
H         16.66700       21.15500        1.11500
O         18.88300       21.54900        2.73200
H         18.94700       21.59300        1.73600
C         16.43900       22.72500        2.61000
H         17.26100       23.36700        2.24800
H         16.32500       22.87600        3.73300
H         15.57200       23.28000        2.16800


