%chk=C10H24O2_pair_056_069.chk
%nproc=8
%mem=8000Mb
#p opt b3lyp/6-31G**

Conformer number 486. Energy MM = 0.000 kcal/mol

0 1
H         12.74100        9.42200       -1.07900
C         12.68000        8.63600       -0.31000
C         12.46700        9.32800        1.03200
H         11.81600        7.91700       -0.42500
H         13.64500        8.07300       -0.31500
H         13.46500        9.85000        1.38400
H         12.32100        8.57000        1.87100
C         11.37300       10.24300        1.26500
C         11.33900       10.57400        2.70500
H         11.45300       11.20900        0.73100
H         11.41300        9.68400        3.40000
H         10.42400       11.10200        2.95900
O         10.11900        9.62000        0.96600
H         10.09500        8.78500        1.45100
C         12.38500       11.62300        3.06200
H         13.44200       11.33100        2.93500
H         12.42200       11.83200        4.11000
H         12.17100       12.50000        2.47600
H         14.07600        9.77300        7.00600
C         13.33500       10.37000        6.43500
C         11.94700        9.76900        6.89000
H         13.45600       11.42400        6.68900
H         13.49700       10.30300        5.32600
H         11.83100        8.73300        6.50500
H         11.20700       10.36200        6.43400
C         11.72700        9.79200        8.37400
C         10.51200        9.08800        8.70200
H         12.58300        9.28300        8.82400
H          9.65100        9.47000        8.14600
H         10.30200        9.21800        9.80000
O         11.64800       11.10900        8.85800
H         12.54100       11.43800        8.80100
C         10.67000        7.57900        8.59900
H         10.70100        7.12600        7.51700
H          9.83300        7.15100        9.13100
H         11.62300        7.30000        9.08200


