%chk=C10H24O2_pair_003_045.chk
%nproc=8
%mem=8000Mb
#p opt b3lyp/6-31G**

Conformer number 042. Energy MM = 0.000 kcal/mol

0 1
H         19.99400        1.66500       12.36000
C         19.77900        2.69000       12.56500
C         18.94600        3.30900       11.42700
H         19.30200        2.74700       13.54400
H         20.75500        3.22300       12.63000
H         19.64000        3.62700       10.63900
H         18.38500        4.15800       11.81700
C         18.00700        2.38600       10.86000
C         17.32400        2.92900        9.74000
H         18.60900        1.47200       10.55400
H         18.05500        3.38700        9.14300
H         16.54600        3.63600       10.08700
O         17.03800        2.13600       11.83500
H         16.69600        3.01900       12.02500
C         16.72300        1.91300        8.73300
H         16.10000        2.45200        7.98900
H         16.01800        1.24600        9.23600
H         17.52900        1.31400        8.13500
H         18.88600        2.67900       16.54000
C         18.53000        3.70500       16.82000
C         19.28900        4.80000       16.02200
H         17.46400        3.83100       16.45800
H         18.49800        3.90300       17.93500
H         19.05700        4.69300       14.97000
H         20.36200        4.76900       16.16600
C         18.88500        6.21700       16.29900
C         19.54800        7.14000       15.41100
H         17.82400        6.34800       16.02300
H         19.16800        6.89800       14.37600
H         20.62500        6.82600       15.37500
O         18.94900        6.47900       17.70900
H         19.84900        6.26200       17.95100
C         19.31400        8.58900       15.69100
H         19.48300        8.75600       16.78500
H         18.23800        8.82600       15.44400
H         19.91300        9.30900       15.06400


