%chk=PET2_003_gaussian.chk
%nproc=4
%mem=4000Mb
#p 6-31g* mp2

Conformer number 003. Energy MM = 72.627 kcal/mol

0 1
C  -0.1874    0.1787    -2.3151
C  2.3457    -1.6790    -0.2262
H  2.5683    -2.7146    0.0268
C  1.2727    -1.3971    -1.0776
H  0.6738    -2.2160    -1.4729
C  0.9709    -0.0723    -1.4180
C  1.7436    0.9689    -0.8869
H  1.5101    2.0070    -1.1147
C  2.8168    0.6866    -0.0335
H  3.3973    1.5143    0.3677
C  3.1254    -0.6396    0.3001
O  4.5350    -2.1446    1.5059
C  4.2545    -0.9959    1.2031
O  4.9037    0.1202    1.6174
O  -0.1452    1.4439    -2.7990
O  -1.0383    -0.6612    -2.5615
C  6.0155    -0.0958    2.4992
H  5.8170    -0.9166    3.1980
H  6.1309    0.8144    3.0968
C  7.2789    -0.3426    1.6965
H  7.4631    0.4863    1.0051
H  7.1881    -1.2491    1.0897
H  8.1436    -0.4499    2.3574
C  -5.4683    -2.2135    2.4678
C  -3.1634    0.6612    1.5413
H  -2.5072    1.3770    2.0340
C  -3.8633    -0.2724    2.3128
H  -3.7411    -0.2654    3.3936
C  -4.7061    -1.2036    1.6936
C  -4.8407    -1.1957    0.2993
H  -5.4855    -1.9214    -0.1939
C  -4.1412    -0.2616    -0.4722
H  -4.2463    -0.2878    -1.5547
C  -3.3037    0.6761    0.1466
O  -1.6131    2.3332    -0.1511
C  -2.5287    1.6813    -0.6278
O  -2.9876    1.7557    -1.9009
O  -5.2485    -2.1302    3.7916
O  -6.2235    -3.0468    2.0030
C  -2.2727    2.6349    -2.7871
H  -3.0191    3.0803    -3.4528
H  -1.7911    3.4519    -2.2381
C  -1.2565    1.8517    -3.6164
H  -0.8472    2.5007    -4.3974
H  -1.7260    0.9947    -4.1123
H  -5.8033    -2.8459    4.1672
