%chk=IsoP_042_gaussian.chk
%nproc=4
%mem=4000Mb
#p 6-31g* mp2

Conformer number 042. Energy MM = 23.759 kcal/mol

0 1
C  -0.5285    0.4656    -0.5953
H  -0.2025    1.3391    -0.0146
H  -0.4418    0.7614    -1.6491
C  -1.9831    0.1481    -0.2912
C  -2.6402    -0.8150    -1.2436
H  -3.7289    -0.8320    -1.1567
H  -2.2722    -1.8313    -1.0728
H  -2.4154    -0.5357    -2.2787
C  -2.6020    0.7398    0.7501
H  -2.0323    1.4409    1.3602
C  -4.0097    0.5472    1.2173
H  -4.5287    -0.2739    0.7194
H  -4.5824    1.4660    1.0590
H  -4.0099    0.3276    2.2900
C  4.2171    0.2249    -0.1698
H  4.9226    -0.4881    0.2692
H  4.5104    1.2360    0.1313
H  4.3147    0.1609    -1.2586
C  2.8165    -0.0738    0.2981
C  2.6356    -0.0073    1.7896
H  1.5931    -0.0908    2.1047
H  3.2003    -0.8109    2.2732
H  3.0053    0.9509    2.1704
C  1.8425    -0.3589    -0.5883
H  2.0913    -0.3596    -1.6497
C  0.4078    -0.7113    -0.2974
H  0.2757    -1.0483    0.7359
H  0.1446    -1.5719    -0.9250

