%chk=IsoP_009_gaussian.chk
%nproc=4
%mem=4000Mb
#p 6-31g* mp2

Conformer number 009. Energy MM = 23.486 kcal/mol

0 1
C  -1.1273    -1.1569    0.4159
H  -0.7170    -1.4665    -0.5516
H  -1.6775    -2.0358    0.7778
C  -2.1165    -0.0169    0.2576
C  -3.0923    0.1442    1.3962
H  -2.5647    0.3850    2.3241
H  -3.8161    0.9454    1.2121
H  -3.6577    -0.7814    1.5459
C  -2.1836    0.7991    -0.8135
H  -2.9511    1.5726    -0.8298
C  -1.3020    0.8041    -2.0224
H  -1.8913    0.5561    -2.9105
H  -0.4661    0.1049    -1.9613
H  -0.8813    1.8051    -2.1621
C  2.8544    -1.2405    0.0863
H  2.2111    -2.1063    0.2584
H  3.1705    -1.2844    -0.9616
H  3.7418    -1.3482    0.7184
C  2.1770    0.0722    0.3659
C  2.9799    1.2820    -0.0356
H  3.9347    1.2972    0.5001
H  2.4595    2.2196    0.1865
H  3.1838    1.2622    -1.1112
C  0.9531    0.2131    0.9113
H  0.5580    1.2207    1.0446
C  0.0239    -0.8705    1.3912
H  0.5688    -1.8022    1.5746
H  -0.3718    -0.5734    2.3702

