%chk=IsoP_043_gaussian.chk
%nproc=4
%mem=4000Mb
#p 6-31g* mp2

Conformer number 043. Energy MM = 24.629 kcal/mol

0 1
C  -1.0121    1.6143    0.3366
H  -1.7015    2.1750    0.9826
H  -0.8641    2.2513    -0.5450
C  -1.6718    0.3105    -0.0819
C  -1.0858    -0.3636    -1.2932
H  -1.8140    -0.9892    -1.8170
H  -0.7439    0.3794    -2.0216
H  -0.2363    -0.9911    -1.0113
C  -2.7447    -0.1533    0.5907
H  -3.1165    0.4212    1.4387
C  -3.5054    -1.4160    0.3365
H  -3.0212    -2.0781    -0.3847
H  -4.5095    -1.1788    -0.0276
H  -3.6061    -1.9749    1.2726
C  3.4555    -0.0294    -0.7176
H  3.5512    0.8587    -1.3511
H  3.3376    -0.8960    -1.3764
H  4.3905    -0.1407    -0.1587
C  2.2893    0.0666    0.2319
C  2.1248    -1.1318    1.1254
H  2.9889    -1.2252    1.7913
H  2.0560    -2.0430    0.5212
H  1.2284    -1.0951    1.7473
C  1.4914    1.1526    0.2281
H  1.7179    1.9535    -0.4762
C  0.3045    1.4402    1.1100
H  0.1767    0.6971    1.9020
H  0.5201    2.3857    1.6251

