%chk=MD_extract_013_gaussian.chk
%nproc=1
%mem=1000Mb
#p opt pm3

Conformer number 013. Energy MM = 0.000 kcal/mol

0 1
C         13.46500        6.91400        2.62200
H         13.55000        6.62000        1.59600
H         12.89100        6.21600        3.24600
H         14.52200        7.02300        2.95700
C         12.70400        8.28900        2.59900
H         12.40200        8.62100        3.61900
H         11.72500        8.07000        2.13200
C         13.40900        9.33700        1.86000
H         14.44500        9.54900        2.33500
O         13.62400        8.75500        0.58600
C         12.66700       10.55800        1.66300
H         14.46500        8.34000        0.57100
H         13.58400       11.26700        1.21500
H         11.79800       10.43500        1.01900
C         12.17600       11.17600        2.96800
H         12.93000       11.33600        3.69900
H         11.42300       10.54100        3.43900
H         11.79300       12.15600        2.76300

