%chk=MD_extract_003_gaussian.chk
%nproc=1
%mem=1000Mb
#p opt pm3

Conformer number 003. Energy MM = 0.000 kcal/mol

0 1
C         12.32300       13.66800        6.08600
H         12.34400       12.66500        6.54800
H         13.03100       14.26000        6.69000
H         12.60900       13.45100        5.07200
C         10.90500       14.17300        6.17600
H         10.91000       15.30000        6.13100
H         10.41900       13.77800        7.06600
C         10.19600       13.65700        5.00800
H         10.90400       13.82900        4.16900
O         10.04400       12.28300        5.26800
C          8.98600       14.48400        4.72900
H          9.72300       11.90000        4.42400
H          8.28800       13.78800        4.20900
H          8.57300       14.80500        5.71900
C          9.14300       15.72200        3.83200
H         10.04200       16.38400        4.03500
H          8.26100       16.36000        3.83100
H          9.30900       15.40600        2.73100

