%chk=MD_extract_002_gaussian.chk
%nproc=1
%mem=1000Mb
#p opt pm3

Conformer number 002. Energy MM = 0.000 kcal/mol

0 1
C          5.45100        9.80900       13.86200
H          4.71600        9.03800       13.96500
H          6.42500        9.60400       14.34800
H          5.67800        9.93000       12.82900
C          4.83700       11.07300       14.42500
H          5.62500       11.89100       14.22800
H          4.76300       10.98300       15.56500
C          3.53100       11.46100       13.91400
H          2.68000       10.90200       14.42400
O          3.43400       12.85900       14.21700
C          3.44600       11.22400       12.42200
H          2.66300       13.29500       13.74500
H          3.25300       10.15600       12.16400
H          2.44800       11.64700       12.28800
C          4.49800       11.95600       11.59600
H          4.75100       12.93000       11.96100
H          4.10000       11.98500       10.57000
H          5.37300       11.25600       11.47200

