%chk=MD_extract_021_gaussian.chk
%nproc=1
%mem=1000Mb
#p opt pm3

Conformer number 021. Energy MM = 0.000 kcal/mol

0 1
C          9.22500        1.21200       -0.54400
H          9.14900        0.28100        0.10700
H         10.18800        0.88700       -1.03800
H          8.54200        1.30400       -1.28700
C          9.30700        2.45600        0.32300
H          9.78300        2.23900        1.29400
H          8.28700        2.72100        0.77700
C          9.96000        3.64100       -0.24800
H          9.47700        3.72100       -1.18700
O          9.63300        4.78000        0.50200
C         11.39500        3.52200       -0.46600
H          9.95500        5.50100       -0.02100
H         11.69300        2.42500       -0.69100
H         11.66200        4.12700       -1.37000
C         12.40200        4.05400        0.61300
H         12.55100        3.27500        1.38300
H         12.01600        4.90000        1.20200
H         13.30300        4.42300        0.23600

