%chk=MD_extract_014_gaussian.chk
%nproc=1
%mem=1000Mb
#p opt pm3

Conformer number 014. Energy MM = 0.000 kcal/mol

0 1
C          9.78400        5.21900        8.71200
H         10.21400        4.52200        7.93700
H         10.41000        5.13900        9.58900
H          9.89100        6.29200        8.38000
C          8.31600        4.90200        9.09500
H          7.71800        5.75700        8.88900
H          8.23300        4.72500       10.16600
C          7.53900        3.97900        8.29300
H          6.51100        3.94900        8.61100
O          7.30000        4.43300        6.98100
C          8.05700        2.59000        8.42500
H          8.14200        4.65100        6.60200
H          8.57000        2.37500        9.36200
H          7.18900        1.96100        8.31400
C          9.04600        2.09600        7.34600
H          9.00800        0.96300        7.48100
H         10.02800        2.57400        7.41900
H          8.66700        2.31600        6.35000

