%chk=MD_extract_007_gaussian.chk
%nproc=1
%mem=1000Mb
#p opt pm3

Conformer number 007. Energy MM = 0.000 kcal/mol

0 1
C          5.04100        6.71800       15.33800
H          5.33700        7.66100       15.84900
H          5.01400        5.89000       16.04500
H          4.04400        6.81800       14.92900
C          6.09300        6.27400       14.32500
H          7.09100        6.15900       14.83900
H          6.17100        7.05100       13.58500
C          5.81900        5.08700       13.56800
H          5.47300        4.31800       14.24600
O          4.84500        5.28900       12.55500
C          6.96300        4.47400       12.90500
H          4.00600        5.27100       13.01200
H          7.69100        5.20300       12.42900
H          7.56600        4.06600       13.72800
C          6.51900        3.29400       12.00000
H          6.04500        3.54700       11.05600
H          5.91200        2.72700       12.71700
H          7.54200        2.75400       11.80900

