%chk=MD_extract_011_gaussian.chk
%nproc=1
%mem=1000Mb
#p opt pm3

Conformer number 011. Energy MM = 0.000 kcal/mol

0 1
C         14.78600        3.68700       10.59800
H         15.61700        3.75500       11.27500
H         14.59100        2.61600       10.43400
H         13.97700        4.25100       11.06900
C         15.05100        4.34500        9.27700
H         15.51200        3.62700        8.60200
H         15.74200        5.14600        9.46300
C         13.91900        4.82000        8.44300
H         13.47800        5.57800        9.04300
O         14.44200        5.52200        7.32500
C         12.90000        3.97300        8.07200
H         14.83700        4.87000        6.75200
H         12.47100        3.64300        9.02300
H         12.14700        4.56000        7.45400
C         13.09900        2.74700        7.18400
H         13.85000        2.02200        7.68300
H         13.40300        2.95100        6.13200
H         12.10600        2.23800        7.02500

