%chk=IsoP_021_gaussian.chk
%nproc=4
%mem=4000Mb
#p 6-31g* mp2

Conformer number 021. Energy MM = 23.712 kcal/mol

0 1
C  -0.6782    0.0135    0.7300
H  -0.8316    -0.5609    1.6536
H  -0.3569    1.0125    1.0528
C  -1.9868    0.1400    -0.0319
C  -1.9871    1.1644    -1.1352
H  -1.4098    0.8032    -1.9918
H  -1.5359    2.0988    -0.7842
H  -2.9897    1.4179    -1.4872
C  -3.0508    -0.6100    0.3185
H  -2.9436    -1.3036    1.1524
C  -4.4058    -0.6400    -0.3142
H  -4.6793    -1.6762    -0.5387
H  -4.4654    -0.0804    -1.2496
H  -5.1488    -0.2356    0.3798
C  4.0034    -0.4306    1.4999
H  4.2413    0.4048    2.1665
H  3.8281    -1.3138    2.1233
H  4.8768    -0.6354    0.8722
C  2.8133    -0.0909    0.6409
C  3.0100    1.1111    -0.2412
H  3.3480    1.9646    0.3566
H  2.0985    1.4266    -0.7541
H  3.7697    0.9003    -1.0007
C  1.6871    -0.8278    0.7052
H  1.6554    -1.6684    1.3987
C  0.4264    -0.6521    -0.0990
H  0.0951    -1.6455    -0.4286
H  0.6169    -0.0865    -1.0162
