%chk=MD_extract_004_gaussian.chk
%nproc=1
%mem=1000Mb
#p opt pm3

Conformer number 004. Energy MM = 0.000 kcal/mol

0 1
C         -1.23200       15.61500        3.77100
H         -1.84500       14.71500        3.52400
H         -1.28600       16.26600        2.89300
H         -1.81800       16.26200        4.49300
C          0.17900       15.35000        4.21400
H          0.16300       14.71100        5.10500
H          0.59800       16.28600        4.52600
C          0.95200       14.78400        3.12800
H          0.93400       15.39000        2.21900
O          2.32500       14.73600        3.57000
C          0.58300       13.37900        2.84700
H          2.88800       14.76900        2.77200
H          0.74200       12.77600        3.83800
H         -0.47600       13.30000        2.42400
C          1.58600       12.63200        1.97400
H          2.61700       12.69600        2.32400
H          1.60700       12.98000        0.91600
H          1.32300       11.57000        1.87000

