%chk=MD_extract_019_gaussian.chk
%nproc=1
%mem=1000Mb
#p opt pm3

Conformer number 019. Energy MM = 0.000 kcal/mol

0 1
C          4.88700       11.70400        7.94800
H          4.50500       12.69300        8.21700
H          5.86700       11.70400        8.32900
H          4.26700       10.97700        8.49900
C          4.76000       11.51400        6.41100
H          3.69900       11.64500        6.27300
H          5.10900       10.53400        5.99800
C          5.49000       12.47600        5.61700
H          5.40300       13.47000        5.96300
O          6.88800       12.13300        5.59600
C          4.98100       12.26300        4.28800
H          7.20500       12.06700        6.50000
H          5.33800       11.26100        4.02000
H          3.86600       12.06200        4.19100
C          5.45100       13.23500        3.19800
H          5.13300       14.28000        3.44200
H          4.94600       13.01000        2.25400
H          6.55400       13.14100        3.07900

