%chk=MD_extract_024_gaussian.chk
%nproc=1
%mem=1000Mb
#p opt pm3

Conformer number 024. Energy MM = 0.000 kcal/mol

0 1
C          5.67300        3.20700        2.41300
H          6.56900        2.80200        2.89200
H          5.24700        3.97500        3.04700
H          6.00500        3.72600        1.51100
C          4.64000        2.08800        2.21700
H          3.71600        2.61100        1.85400
H          4.34400        1.75000        3.27600
C          4.93600        0.99500        1.30500
H          5.66800        0.36700        1.76200
O          3.73200        0.32200        1.12700
C          5.49700        1.32400       -0.00200
H          3.90700       -0.41000        0.54100
H          4.70300        1.80500       -0.58400
H          6.25700        2.14900        0.16300
C          6.11700        0.16100       -0.69700
H          5.39800       -0.59200       -0.97900
H          6.91100       -0.33100       -0.08000
H          6.57400        0.35800       -1.73000

