%chk=MD_extract_012_gaussian.chk
%nproc=1
%mem=1000Mb
#p opt pm3

Conformer number 012. Energy MM = 0.000 kcal/mol

0 1
C          5.90500       15.07800       10.32700
H          5.44300       14.89500       11.27800
H          5.30500       14.38900        9.61700
H          5.77300       16.09900       10.12100
C          7.38200       14.69400       10.20900
H          8.09100       15.34100       10.88600
H          7.67800       15.05300        9.18800
C          7.68900       13.28700       10.32700
H          6.91700       12.58200        9.94500
O          8.87900       13.17400        9.50900
C          7.91500       12.92300       11.73800
H          8.72000       12.48300        8.85900
H          8.50600       13.65600       12.26000
H          6.94100       12.79900       12.26000
C          8.53800       11.51700       11.87200
H          7.89700       10.83800       11.30700
H          8.75200       11.22100       12.90600
H          9.48800       11.37200       11.30100

