%chk=MD_extract_010_gaussian.chk
%nproc=1
%mem=1000Mb
#p opt pm3

Conformer number 010. Energy MM = 0.000 kcal/mol

0 1
C          8.82200        7.67200       14.17600
H          7.99300        8.41600       14.24900
H          9.22600        7.46500       15.14900
H          8.46300        6.80500       13.62900
C          9.87600        8.40300       13.33500
H         10.02500        9.40400       13.73300
H          9.41200        8.54200       12.32500
C         11.08800        7.69900       13.09300
H         11.89800        8.34900       12.64400
O         11.70400        7.19300       14.29600
C         10.86100        6.52500       12.27500
H         12.23600        7.92700       14.61800
H         10.34700        5.77500       12.88700
H         10.23400        6.68600       11.30800
C         12.16600        6.00200       11.77200
H         12.71600        6.80600       11.27200
H         12.08100        5.20800       11.09900
H         12.78000        5.69900       12.66900

