%chk=MD_extract_005_gaussian.chk
%nproc=1
%mem=1000Mb
#p opt pm3

Conformer number 005. Energy MM = 0.000 kcal/mol

0 1
C          3.64000        5.41600        9.78300
H          3.84800        4.35600        9.67400
H          3.04300        5.64200        8.91600
H          3.10900        5.53800       10.76000
C          4.93300        6.24900        9.77200
H          5.43500        6.25900        8.75800
H          5.65700        5.72000       10.35700
C          4.69900        7.66200       10.18800
H          4.02200        7.98900        9.39900
O          4.24500        7.74700       11.48000
C          5.87800        8.45500        9.97500
H          4.48700        6.92500       11.83100
H          6.15300        8.18600        8.88600
H          5.68100        9.53600       10.06200
C          7.11200        8.02100       10.83000
H          6.84600        8.17700       11.86500
H          8.03600        8.54800       10.51100
H          7.29400        7.00200       10.62800

