%chk=MD_extract_017_gaussian.chk
%nproc=1
%mem=1000Mb
#p opt pm3

Conformer number 017. Energy MM = 0.000 kcal/mol

0 1
C         15.15900       10.80600        5.32000
H         15.31600       10.51100        4.26100
H         16.14800       10.55800        5.85000
H         14.99900       11.90700        5.41900
C         14.02000       10.12000        6.09500
H         13.07700       10.60300        5.76800
H         14.12000       10.42800        7.14600
C         13.84900        8.69800        5.95100
H         13.73600        8.34500        4.86500
O         14.91600        8.02700        6.59600
C         12.51800        8.38300        6.52700
H         14.74100        7.09200        6.50500
H         12.66300        8.19400        7.57600
H         11.74800        9.13600        6.41700
C         11.95100        7.02600        6.09500
H         11.54500        7.25100        5.14800
H         11.10400        6.67200        6.62300
H         12.63400        6.15200        6.01300

