%chk=PET2_006_gaussian.chk
%nproc=4
%mem=4000Mb
#p 6-31g* mp2

Conformer number 006. Energy MM = 72.083 kcal/mol

0 1
C  1.1174    -0.3108    0.7037
C  4.8558    0.2214    0.7839
H  5.5970    0.5012    1.5293
C  3.5135    0.1290    1.1691
H  3.2402    0.3381    2.2026
C  2.5289    -0.2291    0.2376
C  2.9014    -0.4947    -1.0868
H  2.1611    -0.7754    -1.8328
C  4.2438    -0.4022    -1.4718
H  4.5178    -0.6119    -2.5051
C  5.2286    -0.0440    -0.5404
O  6.9839    -0.1890    -2.1556
C  6.6402    0.0385    -1.0066
O  7.4601    0.3951    0.0127
O  0.2961    -0.6628    -0.3151
O  0.7721    -0.0796    1.8511
C  8.8417    0.4973    -0.3534
H  8.9622    1.2566    -1.1342
H  9.1996    -0.4711    -0.7209
C  9.6282    0.9000    0.8786
H  10.6935    0.9914    0.6490
H  9.2673    1.8567    1.2706
H  9.5003    0.1607    1.6763
C  -9.5161    -0.2786    1.0849
C  -5.7845    0.2578    1.1710
H  -5.0432    0.5398    1.9155
C  -7.1262    0.1654    1.5578
H  -7.4017    0.3758    2.5902
C  -8.1081    -0.1945    0.6259
C  -7.7397    -0.4619    -0.6980
H  -8.4865    -0.7427    -1.4374
C  -6.3984    -0.3696    -1.0848
H  -6.1262    -0.5800    -2.1182
C  -5.4132    -0.0097    -0.1540
O  -3.6571    -0.1598    -1.7686
C  -4.0021    0.0721    -0.6213
O  -3.1801    0.4250    0.3968
O  -10.3641    -0.6323    0.1037
O  -9.9100    -0.0609    2.2154
C  -1.7922    0.5594    0.0524
H  -1.3369    1.2092    0.8072
H  -1.6709    1.0864    -0.9024
C  -1.0921    -0.7973    0.0282
H  -1.2140    -1.3247    0.9828
H  -1.5469    -1.4469    -0.7271
H  -11.2405    -0.6475    0.5430

