%chk=PET2_041_gaussian.chk
%nproc=4
%mem=4000Mb
#p 6-31g* mp2

Conformer number 041. Energy MM = 71.666 kcal/mol

0 1
C  0.7644    -0.3620    -2.6526
C  3.8827    0.8441    -0.8958
H  4.7421    1.4610    -1.1488
C  2.9008    0.6242    -1.8685
H  3.0168    1.0735    -2.8540
C  1.7786    -0.1654    -1.5810
C  1.6479    -0.7341    -0.3072
H  0.7888    -1.3514    -0.0539
C  2.6297    -0.5139    0.6655
H  2.5142    -0.9633    1.6510
C  3.7522    0.2756    0.3783
O  4.6593    -0.0047    2.5695
C  4.7639    0.4758    1.4524
O  5.7860    1.2469    1.0064
O  -0.2423    -1.1571    -2.2171
O  0.8476    0.1418    -3.7612
C  6.8289    1.5116    1.9567
H  7.2973    2.4564    1.6621
H  6.4231    1.6541    2.9649
C  7.8599    0.3992    1.9246
H  8.6894    0.6195    2.6023
H  8.2554    0.2708    0.9116
H  7.4149    -0.5574    2.2161
C  -6.1567    0.3137    3.5637
C  -5.5351    -1.2360    0.1850
H  -5.9605    -2.0367    -0.4184
C  -6.0798    -0.9637    1.4440
H  -6.9205    -1.5549    1.8036
C  -5.5470    0.0613    2.2352
C  -4.4655    0.8123    1.7579
H  -4.0382    1.6128    2.3583
C  -3.9203    0.5400    0.4977
H  -3.0805    1.1377    0.1504
C  -4.4528    -0.4860    -0.2960
O  -4.3443    -1.7196    -2.3415
C  -3.9095    -0.8195    -1.6413
O  -2.8797    0.0025    -1.9574
O  -5.5599    1.3185    4.2283
O  -7.0947    -0.2945    4.0440
C  -2.2663    -0.2349    -3.2396
H  -1.7417    0.6893    -3.5000
H  -3.0334    -0.4007    -4.0049
C  -1.2918    -1.4109    -3.1715
H  -0.8662    -1.6294    -4.1577
H  -1.8002    -2.3172    -2.8286
H  -6.0571    1.3706    5.0718

