%chk=PET2_021_gaussian.chk
%nproc=4
%mem=4000Mb
#p 6-31g* mp2

Conformer number 021. Energy MM = 72.527 kcal/mol

0 1
C  1.0654    0.9107    0.4159
C  4.2833    -0.0007    -1.4087
H  4.5919    -0.4452    -2.3541
C  2.9190    0.1534    -1.1373
H  2.1970    -0.1759    -1.8814
C  2.5018    0.7228    0.0730
C  3.4640    1.1349    1.0055
H  3.1560    1.5798    1.9509
C  4.8283    0.9807    0.7339
H  5.5510    1.3101    1.4771
C  5.2460    0.4113    -0.4763
O  7.0620    -0.2761    -1.8667
C  6.6827    0.2222    -0.8190
O  7.4751    0.6724    0.1848
O  0.2708    0.4586    -0.5844
O  0.6817    1.4007    1.4657
C  8.8885    0.5451    -0.0310
H  9.1514    0.7384    -1.0774
H  9.3748    1.3197    0.5711
C  9.3645    -0.8237    0.4179
H  10.4496    -0.9107    0.3129
H  8.8917    -1.6165    -0.1705
H  9.0952    -1.0002    1.4644
C  -9.5121    -0.1125    0.9501
C  -5.7558    -0.0432    1.2749
H  -5.0324    0.2841    2.0184
C  -7.1194    0.1122    1.5479
H  -7.4294    0.5553    2.4932
C  -8.0794    -0.2985    0.6140
C  -7.6667    -0.8668    -0.5970
H  -8.3958    -1.1927    -1.3357
C  -6.3034    -1.0222    -0.8701
H  -5.9968    -1.4663    -1.8162
C  -5.3402    -0.6119    0.0629
O  -3.5210    -1.2901    -1.3314
C  -3.9042    -0.8007    -0.2812
O  -3.1087    -0.3499    0.7191
O  -10.3356    -0.5431    -0.0212
O  -9.9443    0.3719    1.9793
C  -1.6971    -0.5063    0.5045
H  -1.4684    -1.4923    0.0808
H  -1.2203    -0.4916    1.4901
C  -1.1410    0.6144    -0.3709
H  -1.6172    0.5991    -1.3569
H  -1.3705    1.6004    0.0524
H  -11.2322    -0.3612    0.3314

