%chk=05-PET_1602_gaussian.chk
%nproc=4
%mem=4000Mb
#p opt=loose m062x/6-31g(d,p)

Conformer number 1602. Energy MM = 73.121 kcal/mol

0 1
C  1.0147    -3.1175    -0.2069
C  4.2016    -1.1642    -0.7329
H  5.0683    -1.2136    -1.3908
C  3.1887    -2.1203    -0.8615
H  3.2830    -2.8984    -1.6178
C  2.0641    -2.0773    -0.0269
C  1.9638    -1.0656    0.9382
H  1.1020    -1.0073    1.5991
C  2.9780    -0.1084    1.0669
H  2.8748    0.6656    1.8242
C  4.1031    -0.1525    0.2318
O  6.1960    0.8152    -0.3924
C  5.2095    0.8398    0.3257
O  4.9534    1.7470    1.3006
O  0.0017    -2.9332    0.6747
O  1.0774    -4.0025    -1.0448
C  5.9538    2.7594    1.4883
H  6.9631    2.3522    1.3573
H  5.8756    3.0971    2.5268
C  5.6991    3.9257    0.5520
H  6.4205    4.7286    0.7275
H  5.7721    3.6127    -0.4943
H  4.6882    4.3208    0.6965
C  -5.8666    3.3051    0.2890
C  -3.7117    0.1772    0.4471
H  -2.9497    -0.2493    1.0955
C  -4.2675    1.4168    0.7851
H  -3.9265    1.9227    1.6857
C  -5.2498    1.9943    -0.0294
C  -5.6723    1.3243    -1.1840
H  -6.4348    1.7626    -1.8260
C  -5.1171    0.0859    -1.5216
H  -5.4555    -0.4227    -2.4233
C  -4.1343    -0.4955    -0.7084
O  -3.9171    -2.4099    -2.1237
C  -3.5760    -1.8145    -1.1147
O  -2.6577    -2.2412    -0.2142
O  -5.3779    3.8508    1.4165
O  -6.7240    3.8672    -0.3662
C  -2.0423    -3.4986    -0.5470
H  -2.8168    -4.2683    -0.6382
H  -1.5097    -3.3888    -1.4975
C  -1.0816    -3.8779    0.5768
H  -0.6929    -4.8941    0.4441
H  -1.6026    -3.8457    1.5396
H  -5.8681    4.6961    1.4986

