%chk=05-PET_1387_gaussian.chk
%nproc=4
%mem=4000Mb
#p opt=loose m062x/6-31g(d,p)

Conformer number 1387. Energy MM = 72.118 kcal/mol

0 1
C  1.1082    -0.6351    0.0149
C  4.1995    1.0089    1.5169
H  4.4545    1.6835    2.3333
C  2.8618    0.6485    1.3184
H  2.1060    1.0529    1.9882
C  2.5136    -0.2181    0.2740
C  3.5178    -0.7183    -0.5668
H  3.2635    -1.3934    -1.3829
C  4.8554    -0.3578    -0.3682
H  5.6121    -0.7623    -1.0368
C  5.2039    0.5089    0.6761
O  6.9321    1.6803    1.8389
C  6.6095    0.9265    0.9346
O  7.4503    0.3565    0.0365
O  0.2661    -0.0628    0.9091
O  0.7839    -1.3853    -0.8915
C  8.8276    0.7084    0.2164
H  9.1643    0.3890    1.2091
H  8.9485    1.7928    0.1160
C  9.6390    0.0015    -0.8516
H  10.7020    0.2396    -0.7557
H  9.5113    -1.0836    -0.7776
H  9.2995    0.2944    -1.8506
C  -9.5388    -0.8981    -0.4199
C  -6.4363    0.6930    1.0106
H  -6.1875    1.3658    1.8302
C  -7.7704    0.3265    0.8066
H  -8.5412    0.7178    1.4687
C  -8.1112    -0.5369    -0.2418
C  -7.1077    -1.0309    -1.0847
H  -7.3530    -1.7026    -1.9046
C  -5.7722    -0.6641    -0.8805
H  -5.0124    -1.0616    -1.5498
C  -5.4292    0.2003    0.1690
O  -3.7046    1.3703    1.3402
C  -4.0257    0.6217    0.4316
O  -3.1803    0.0544    -0.4631
O  -9.7403    -1.7298    -1.4567
O  -10.4629    -0.5104    0.2702
C  -1.7968    0.4125    -0.3190
H  -1.6843    1.4871    -0.1273
H  -1.3179    0.2346    -1.2876
C  -1.1188    -0.4173    0.7687
H  -1.2345    -1.4919    0.5791
H  -1.5951    -0.2363    1.7380
H  -10.7094    -1.8791    -1.4536

