%chk=05-PET_1404_gaussian.chk
%nproc=4
%mem=4000Mb
#p opt=loose m062x/6-31g(d,p)

Conformer number 1404. Energy MM = 72.083 kcal/mol

0 1
C  1.0469    0.7817    0.0015
C  4.2415    -0.4987    1.6356
H  4.5382    -1.1303    2.4721
C  2.8807    -0.2871    1.3860
H  2.1493    -0.7609    2.0371
C  2.4788    0.5220    0.3150
C  3.4527    1.1152    -0.5005
H  3.1567    1.7474    -1.3367
C  4.8135    0.9036    -0.2507
H  5.5456    1.3775    -0.9007
C  5.2156    0.0943    0.8201
O  7.0171    -0.8676    2.0612
C  6.6478    -0.1659    1.1331
O  7.4539    0.4782    0.2536
O  0.2398    0.1349    0.8771
O  0.6764    1.4797    -0.9285
C  8.8538    0.2792    0.4858
H  9.0935    -0.7873    0.4092
H  9.1192    0.6471    1.4833
C  9.6221    1.0538    -0.5670
H  9.3512    0.7116    -1.5714
H  10.7004    0.9328    -0.4313
H  9.3765    2.1198    -0.5170
C  -9.5242    -0.0744    -0.8568
C  -5.7642    0.0486    -1.1162
H  -5.0316    0.5205    -1.7673
C  -7.1244    0.2616    -1.3670
H  -7.4226    0.8918    -2.2037
C  -8.0958    -0.3305    -0.5498
C  -7.6983    -1.1387    0.5221
H  -8.4364    -1.6081    1.1686
C  -6.3384    -1.3516    0.7729
H  -6.0436    -1.9830    1.6100
C  -5.3638    -0.7600    -0.0435
O  -3.5620    -1.7182    1.2012
C  -3.9322    -1.0207    0.2707
O  -3.1243    -0.3749    -0.6051
O  -10.3597    -0.6941    -0.0053
O  -9.9436    0.6140    -1.7683
C  -1.7155    -0.5770    -0.4111
H  -1.4927    -1.6302    -0.1983
H  -1.2268    -0.3600    -1.3667
C  -1.1692    0.3362    0.6839
H  -1.3927    1.3893    0.4714
H  -1.6574    0.1187    1.6397
H  -11.2518    -0.4403    -0.3231

