%chk=05-PET_1933_gaussian.chk
%nproc=4
%mem=4000Mb
#p opt=loose m062x/6-31g(d,p)

Conformer number 1933. Energy MM = 71.862 kcal/mol

0 1
C  0.0972    -1.0098    -1.4433
C  2.2580    1.8376    -0.2292
H  2.1697    2.9183    -0.1267
C  1.1830    1.1084    -0.7478
H  0.2749    1.6335    -1.0412
C  1.2730    -0.2830    -0.8899
C  2.4527    -0.9366    -0.5076
H  2.5521    -2.0150    -0.6077
C  3.5292    -0.2063    0.0113
H  4.4329    -0.7388    0.2997
C  3.4376    1.1852    0.1537
O  4.4861    3.2193    0.8435
C  4.5509    2.0088    0.7006
O  5.6166    1.2282    1.0066
O  0.3379    -2.3432    -1.4817
O  -0.9283    -0.4492    -1.7938
C  6.7363    1.9467    1.5394
H  7.0853    2.6835    0.8072
H  6.4431    2.4550    2.4648
C  7.8416    0.9504    1.8302
H  8.7219    1.4529    2.2405
H  8.1308    0.4184    0.9178
H  7.5005    0.1941    2.5450
C  -6.2095    2.3358    1.3438
C  -5.4098    -0.6770    -0.7742
H  -5.8841    -1.2419    -1.5751
C  -6.0705    0.4282    -0.2287
H  -7.0510    0.7083    -0.6101
C  -5.4723    1.1707    0.7969
C  -4.2080    0.8006    1.2724
H  -3.7244    1.3687    2.0638
C  -3.5475    -0.3062    0.7270
H  -2.5610    -0.5673    1.1025
C  -4.1465    -1.0529    -0.2973
O  -3.9228    -2.8238    -1.8897
C  -3.4849    -2.2348    -0.9136
O  -2.3595    -2.5656    -0.2308
O  -5.5329    2.9713    2.3166
O  -7.3091    2.7154    0.9868
C  -1.6008    -3.6475    -0.7963
H  -0.9610    -4.0277    0.0073
H  -2.2671    -4.4629    -1.1005
C  -0.7391    -3.1716    -1.9656
H  -0.2703    -4.0367    -2.4456
H  -1.3220    -2.6471    -2.7303
H  -6.1289    3.7058    2.5745

