%chk=05-PET_1390_gaussian.chk
%nproc=4
%mem=4000Mb
#p opt=loose m062x/6-31g(d,p)

Conformer number 1390. Energy MM = 71.187 kcal/mol

0 1
C  0.9703    -2.6697    -0.1340
C  4.0311    -0.5590    0.5301
H  4.9568    -0.6661    1.0912
C  3.1135    -1.6158    0.5347
H  3.3442    -2.5194    1.0975
C  1.9096    -1.5158    -0.1766
C  1.6315    -0.3448    -0.8940
H  0.7060    -0.2371    -1.4552
C  2.5491    0.7119    -0.8984
H  2.3190    1.6158    -1.4612
C  3.7534    0.6120    -0.1875
O  4.4662    2.7955    -0.8467
C  4.6915    1.7675    -0.2282
O  5.8011    1.5085    0.5066
O  -0.1334    -2.4151    -0.8773
O  1.1851    -3.6918    0.4977
C  6.7586    2.5745    0.5196
H  7.0984    2.7789    -0.5019
H  6.3031    3.4756    0.9452
C  7.9345    2.1426    1.3739
H  7.6067    1.9138    2.3934
H  8.3875    1.2299    0.9729
H  8.6958    2.9265    1.4149
C  -6.3041    3.0994    0.4713
C  -5.5994    -0.4271    -0.7548
H  -6.0368    -1.1620    -1.4292
C  -6.2259    0.8136    -0.5949
H  -7.1395    1.0213    -1.1478
C  -5.6778    1.7704    0.2677
C  -4.5004    1.4770    0.9677
H  -4.0657    2.2140    1.6413
C  -3.8738    0.2361    0.8078
H  -2.9606    0.0349    1.3635
C  -4.4209    -0.7236    -0.0551
O  -4.2463    -2.9028    -1.0229
C  -3.7961    -2.0583    -0.2654
O  -2.6764    -2.1854    0.4868
O  -7.4243    3.2645    -0.2532
O  -5.8870    3.9776    1.2031
C  -1.9809    -3.4410    0.3588
H  -1.3589    -3.5353    1.2540
H  -2.6930    -4.2742    0.3677
C  -1.1204    -3.4646    -0.9047
H  -1.7313    -3.2828    -1.7941
H  -0.6369    -4.4397    -1.0354
H  -7.7233    4.1695    -0.0233

