%chk=05-PET_494_gaussian.chk
%nproc=4
%mem=4000Mb
#p opt=loose m062x/6-31g(d,p)

Conformer number 494. Energy MM = 72.180 kcal/mol

0 1
C  0.0706    -2.1269    -1.2548
C  2.4711    0.7729    -1.5005
H  2.6967    1.5661    -2.2119
C  1.4634    -0.1495    -1.7995
H  0.9173    -0.0603    -2.7373
C  1.1590    -1.1788    -0.8995
C  1.8620    -1.2678    0.3092
H  1.6232    -2.0417    1.0360
C  2.8696    -0.3435    0.6091
H  3.3965    -0.4333    1.5565
C  3.1814    0.6810    -0.2955
O  4.5240    2.5939    -0.7974
C  4.2421    1.6905    -0.0262
O  4.8311    1.4570    1.1727
O  0.1219    -3.2243    -0.4612
O  -0.7379    -1.9157    -2.1445
C  5.8668    2.3882    1.5093
H  5.4529    3.4018    1.5534
H  6.6615    2.3456    0.7560
C  6.4253    2.0035    2.8653
H  5.6374    2.0205    3.6256
H  7.2228    2.6881    3.1674
H  6.8238    0.9838    2.8428
C  -5.5185    2.8898    -0.9667
C  -4.0067    -0.5625    -0.8635
H  -4.0245    -1.4556    -1.4846
C  -4.7437    0.5568    -1.2649
H  -5.3301    0.5107    -2.1812
C  -4.7206    1.7299    -0.4997
C  -3.9516    1.7784    0.6696
H  -3.9162    2.6814    1.2748
C  -3.2142    0.6594    1.0706
H  -2.6162    0.7110    1.9790
C  -3.2432    -0.5182    0.3106
O  -1.5730    -1.5876    1.6373
C  -2.4323    -1.6751    0.7744
O  -2.7896    -2.8012    0.1104
O  -5.4070    3.9585    -0.1586
O  -6.2147    2.9207    -1.9642
C  -2.0269    -3.9850    0.4041
H  -2.7279    -4.8250    0.3640
H  -1.6099    -3.9516    1.4170
C  -0.9297    -4.1897    -0.6389
H  -0.4745    -5.1755    -0.4991
H  -1.3380    -4.1562    -1.6553
H  -5.9733    4.6355    -0.5852

