%chk=05-PET_1088_gaussian.chk
%nproc=4
%mem=4000Mb
#p opt=loose m062x/6-31g(d,p)

Conformer number 1088. Energy MM = 72.083 kcal/mol

0 1
C  1.0506    0.1912    0.8477
C  4.3631    -1.1078    -0.5142
H  4.7280    -1.9081    -1.1569
C  2.9894    -0.9976    -0.2702
H  2.3167    -1.7179    -0.7307
C  2.5004    0.0248    0.5536
C  3.4005    0.9327    1.1288
H  3.0363    1.7328    1.7721
C  4.7742    0.8224    0.8848
H  5.4479    1.5416    1.3453
C  5.2635    -0.1999    0.0608
O  7.1582    -1.2495    -0.9487
C  6.7135    -0.3657    -0.2338
O  7.4415    0.5889    0.3964
O  0.3212    -0.7596    0.2149
O  0.6044    1.0768    1.5589
C  8.8527    0.4999    0.1642
H  9.0585    0.6036    -0.9071
H  9.2259    -0.4668    0.5206
C  9.5285    1.6226    0.9267
H  10.6119    1.5969    0.7804
H  9.1497    2.5955    0.5963
H  9.3141    1.5447    1.9977
C  -9.5702    -0.0207    0.2381
C  -6.2668    -1.3163    -1.1203
H  -5.9038    -2.1174    -1.7627
C  -7.6397    -1.2048    -0.8749
H  -8.3195    -1.9212    -1.3308
C  -8.1245    -0.1810    -0.0522
C  -7.2270    0.7284    0.5219
H  -7.5934    1.5287    1.1633
C  -5.8538    0.6170    0.2765
H  -5.1799    1.3374    0.7350
C  -5.3660    -0.4073    -0.5468
O  -3.4707    -1.4606    -1.5525
C  -3.9165    -0.5744    -0.8418
O  -3.1864    0.3766    -0.2100
O  -10.3297    -0.9504    -0.3668
O  -10.0634    0.8416    0.9408
C  -1.7703    0.3265    -0.4452
H  -1.5517    0.1405    -1.5044
H  -1.3756    1.3260    -0.2344
C  -1.0951    -0.7103    0.4493
H  -1.4892    -1.7099    0.2379
H  -1.3143    -0.5247    1.5084
H  -11.2432    -0.7252    -0.0910

