%chk=05-PET_1983_gaussian.chk
%nproc=4
%mem=4000Mb
#p opt=loose m062x/6-31g(d,p)

Conformer number 1983. Energy MM = 71.187 kcal/mol

0 1
C  1.0329    -2.5985    -0.4575
C  2.5604    0.8818    -0.7153
H  2.3272    1.8487    -1.1596
C  1.6658    -0.1817    -0.8801
H  0.7545    -0.0159    -1.4504
C  1.9483    -1.4332    -0.3169
C  3.1334    -1.6066    0.4117
H  3.3672    -2.5733    0.8559
C  4.0280    -0.5430    0.5763
H  4.9394    -0.7082    1.1465
C  3.7459    0.7086    0.0129
O  4.4304    2.9726    -0.3272
C  4.6599    1.8751    0.1556
O  5.7535    1.5395    0.8832
O  -0.0544    -2.2659    -1.1941
O  1.2514    -3.6920    0.0388
C  6.6874    2.6105    1.0678
H  7.0516    2.9556    0.0937
H  6.2008    3.4386    1.5953
C  7.8474    2.0887    1.8930
H  7.4958    1.7199    2.8622
H  8.5904    2.8731    2.0616
H  8.3310    1.2458    1.3882
C  -6.3771    2.9108    0.6854
C  -5.5628    -0.4072    -0.9772
H  -5.9651    -1.0528    -1.7567
C  -6.2199    0.7899    -0.6730
H  -7.1216    1.0538    -1.2213
C  -5.7171    1.6320    0.3260
C  -4.5540    1.2680    1.0168
H  -4.1545    1.9157    1.7958
C  -3.8968    0.0707    0.7126
H  -2.9957    -0.1872    1.2645
C  -4.3986    -0.7743    -0.2871
O  -4.1502    -2.8010    -1.5307
C  -3.7398    -2.0577    -0.6538
O  -2.6395    -2.2650    0.1091
O  -7.4795    3.1519    -0.0450
O  -5.9997    3.6902    1.5402
C  -1.9139    -3.4798    -0.1635
H  -1.3157    -3.6823    0.7300
H  -2.6081    -4.3190    -0.2877
C  -1.0177    -3.3193    -1.3916
H  -0.5099    -4.2595    -1.6360
H  -1.6068    -3.0307    -2.2673
H  -7.8042    4.0126    0.2941

