%chk=IsoP_005_gaussian.chk
%nproc=4
%mem=4000Mb
#p 6-31g* mp2

Conformer number 005. Energy MM = 23.242 kcal/mol

0 1
C  -0.6864    -0.0570    -0.8449
H  -0.4713    -1.0865    -0.5342
H  -0.4614    -0.0346    -1.9197
C  -2.1523    0.2657    -0.6407
C  -2.7161    1.2982    -1.5828
H  -2.6127    0.9625    -2.6199
H  -3.7792    1.4889    -1.4014
H  -2.1864    2.2493    -1.4699
C  -2.9384    -0.3190    0.2849
H  -3.9882    -0.0310    0.3345
C  -2.5394    -1.3355    1.3076
H  -1.4615    -1.5050    1.3561
H  -3.0308    -2.2896    1.0945
H  -2.8612    -1.0005    2.2990
C  3.9680    -0.2524    0.1564
H  4.1961    -1.3232    0.1442
H  4.2077    0.1499    -0.8335
H  4.6269    0.2363    0.8817
C  2.5259    -0.0297    0.5309
C  2.1506    -0.5580    1.8881
H  1.0785    -0.5096    2.0917
H  2.4419    -1.6104    1.9752
H  2.6686    0.0084    2.6687
C  1.6821    0.5855    -0.3206
H  2.0657    0.9095    -1.2882
C  0.2304    0.9161    -0.0970
H  -0.0187    0.9310    0.9691
H  0.0620    1.9406    -0.4524
