%chk=06-PVA_004_gaussian.chk
%nproc=1
%mem=4000Mb
#p opt mp2/6-31g(d,p)

Conformer number 004. Energy MM = 2.201 kcal/mol

0 1
C         -2.28880        1.13010        2.48210
H         -2.06460        1.63550        3.42590
H         -1.94630        0.09290        2.55430
H         -3.37690        1.11590        2.36680
C         -1.64930        1.84740        1.29860
H         -1.99220        1.34610        0.38440
H         -2.01830        2.87880        1.25920
C         -0.11470        1.84420        1.31110
H          0.23340        2.32500        0.38930
C          0.46950        2.57710        2.52450
H          0.18310        2.06670        3.45170
H          0.06610        3.59540        2.56670
C          1.99100        2.65090        2.50030
H          2.34760        3.13300        1.58490
H          2.35070        3.23340        3.35430
H          2.44080        1.65560        2.56690
O          0.33190        0.49120        1.28430
H          1.28470        0.49610        1.09080

