%chk=06-PVA_002_gaussian.chk
%nproc=1
%mem=4000Mb
#p opt mp2/6-31g(d,p)

Conformer number 002. Energy MM = 1.659 kcal/mol

0 1
C         -2.18510        1.07670       -0.03640
H         -1.84750        0.03580       -0.04690
H         -1.82740        1.56540       -0.94850
H         -3.27960        1.07460       -0.06020
C         -1.69060        1.81180        1.20350
H         -2.12150        2.81800        1.19930
H         -2.07470        1.28870        2.08770
C         -0.16100        1.88330        1.26710
H          0.22390        2.36250        0.35900
C          0.35620        2.62600        2.50540
H          1.45170        2.56140        2.52510
H          0.01720        2.11510        3.41510
C         -0.04750        4.09060        2.55910
H         -1.12750        4.20600        2.68610
H          0.43700        4.58210        3.40920
H          0.25430        4.61530        1.64740
O          0.35210        0.55060        1.30120
H          1.32300        0.60980        1.29610

