%chk=07-EVA_006_gaussian.chk
%nproc=1
%mem=4000Mb
#p opt mp2/6-31g(d,p)

Conformer number 006. Energy MM = -6.223 kcal/mol

0 1
C         -2.23970        3.70490        1.16550
H         -1.74230        4.08730        0.26890
H         -1.93230        4.30860        2.02370
H         -3.31880        3.84110        1.03980
C         -1.92850        2.23490        1.38000
H         -2.37070        1.89750        2.32650
H         -2.44400        1.65890        0.60140
C         -0.43030        1.88490        1.35420
H          0.00700        2.14210        0.38130
C          0.35660        2.60100        2.46250
H          0.01580        2.25310        3.44510
H          0.19330        3.68240        2.41660
C          1.85670        2.35410        2.36250
H          2.25180        2.73240        1.41370
H          2.37840        2.87350        3.17360
H          2.09460        1.28860        2.43670
O         -0.32460        0.46120        1.58910
C         -0.58280       -0.34340        0.52010
O         -0.69370        0.02650       -0.63840
C         -0.74510       -1.76450        0.96650
H          0.18270       -2.31560        0.80830
H         -1.02530       -1.80500        2.02390
H         -1.56120       -2.21990        0.39720

