%chk=07-EVA_011_gaussian.chk
%nproc=1
%mem=4000Mb
#p opt mp2/6-31g(d,p)

Conformer number 011. Energy MM = -6.067 kcal/mol

0 1
C         -2.34400        1.16080        2.57400
H         -2.05310        1.70040        3.47940
H         -1.97500        0.13310        2.64980
H         -3.43720        1.12430        2.54890
C         -1.82060        1.85020        1.31890
H         -2.24630        1.32500        0.45700
H         -2.20890        2.87210        1.27340
C         -0.28310        1.85550        1.20770
H          0.01520        2.36410        0.28160
C          0.41090        2.57640        2.37610
H          1.49800        2.50630        2.24450
H          0.20630        2.06410        3.32360
C          0.02210        4.04590        2.49060
H         -1.04930        4.17130        2.67180
H          0.54970        4.51730        3.32580
H          0.28130        4.58870        1.57600
O          0.19440        0.49220        1.17190
C          0.01450       -0.16020       -0.01040
O         -0.39030        0.34400       -1.04960
C          0.37730       -1.60940        0.09980
H          1.33330       -1.78540       -0.39680
H          0.44330       -1.91590        1.14730
H         -0.41030       -2.20650       -0.37170

