%chk=07-EVA_003_gaussian.chk
%nproc=1
%mem=4000Mb
#p opt mp2/6-31g(d,p)

Conformer number 003. Energy MM = -6.696 kcal/mol

0 1
C         -2.20570        3.69920        1.22720
H         -1.69460        4.16480        0.37880
H         -1.87490        4.18980        2.14700
H         -3.27900        3.88780        1.12020
C         -1.94450        2.20360        1.26840
H         -2.44270        1.76140        2.13890
H         -2.43510        1.74480        0.40070
C         -0.45420        1.82560        1.25570
H          0.01090        2.19210        0.33110
C          0.35970        2.39590        2.42870
H          0.35340        3.49120        2.39640
H          1.40510        2.08470        2.30780
C         -0.09830        1.92860        3.80450
H         -0.03400        0.84000        3.89650
H          0.54080        2.36640        4.57840
H         -1.12700        2.23490        4.01290
O         -0.35950        0.38470        1.31150
C         -0.51540       -0.27470        0.13050
O         -0.60950        0.24460       -0.97100
C         -0.55280       -1.75340        0.37020
H          0.46220       -2.13860        0.48250
H         -1.14510       -1.97400        1.26300
H         -1.04090       -2.24090       -0.47880

