%chk=07-EVA_010_gaussian.chk
%nproc=1
%mem=4000Mb
#p opt mp2/6-31g(d,p)

Conformer number 010. Energy MM = -6.992 kcal/mol

0 1
C         -2.27650        3.16070        1.12380
H         -1.88940        3.77710        0.30620
H         -2.19020        3.72760        2.05540
H         -3.34210        2.98810        0.94170
C         -1.53710        1.83440        1.20270
H         -1.95960        1.22000        2.00650
H         -1.72850        1.26770        0.28210
C         -0.01840        1.98280        1.37960
H          0.36880        2.52590        0.50710
C          0.39960        2.72120        2.66400
H          0.03800        3.75450        2.64460
H          1.49420        2.77670        2.70340
C         -0.06600        2.04430        3.94780
H          0.27170        1.00490        3.99850
H          0.34150        2.57120        4.81650
H         -1.15640        2.05910        4.03410
O          0.53460        0.64730        1.40020
C          1.84030        0.53330        1.03140
O          2.55020        1.44180        0.62560
C          2.31560       -0.87050        1.25110
H          2.39650       -1.06300        2.32340
H          1.62740       -1.57850        0.78330
H          3.29970       -0.99400        0.79120

