%chk=07-EVA_012_gaussian.chk
%nproc=1
%mem=4000Mb
#p opt mp2/6-31g(d,p)

Conformer number 012. Energy MM = 6.314 kcal/mol

0 1
C         -2.27750        3.36900        1.24820
H         -1.91490        3.90230        0.36470
H         -1.99550        3.93800        2.13960
H         -3.37140        3.34870        1.20460
C         -1.72980        1.95010        1.27630
H         -2.08000        1.41740        2.16810
H         -2.18090        1.44440        0.41940
C         -0.19300        1.89340        1.19220
H          0.13910        2.44590        0.30580
C          0.43850        2.55410        2.43760
H          0.10120        2.03430        3.34200
H          0.10540        3.59570        2.51760
C          1.96120        2.56710        2.43700
H          2.34820        3.06920        1.54620
H          2.32420        3.11270        3.31490
H          2.37200        1.55520        2.48020
O          0.37390        0.56410        1.06200
C         -0.14870       -0.30000        0.15380
O         -1.33410       -0.56580        0.00400
C          0.92550       -0.83800       -0.73880
H          1.16270       -0.09140       -1.49880
H          1.81800       -1.09360       -0.16040
H          0.56450       -1.74830       -1.22970

