%chk=07-EVA_022_gaussian.chk
%nproc=1
%mem=4000Mb
#p opt mp2/6-31g(d,p)

Conformer number 022. Energy MM = 0.626 kcal/mol

0 1
C         -2.46040        1.33420        2.44240
H         -2.24080        1.88720        3.36020
H         -2.24810        0.27530        2.62520
H         -3.53230        1.41820        2.24250
C         -1.65560        1.86740        1.25690
H         -1.87780        1.22080        0.39800
H         -1.99950        2.87220        0.98480
C         -0.13640        1.84040        1.50630
H          0.38720        2.01260        0.55540
C          0.33430        2.85680        2.56790
H          1.42930        2.91050        2.54360
H          0.08290        2.49440        3.57160
C         -0.18420        4.27370        2.39600
H         -1.26350        4.32900        2.56170
H          0.29040        4.93180        3.13210
H          0.04280        4.66110        1.39840
O          0.10600        0.48290        1.94270
C          1.29180        0.12340        2.48210
O          2.36250        0.69390        2.32920
C          1.04100       -1.01020        3.42520
H          0.42200       -0.64800        4.25150
H          0.53260       -1.82810        2.90630
H          1.98840       -1.37810        3.82680

