%chk=PET2_022_gaussian.chk
%nproc=4
%mem=4000Mb
#p 6-31g* mp2

Conformer number 022. Energy MM = 71.344 kcal/mol

0 1
C  0.7880    -1.5110    -2.7250
C  4.0883    -1.6553    -0.8984
H  4.9434    -2.3279    -0.8473
C  3.0150    -1.9740    -1.7368
H  3.0516    -2.8898    -2.3251
C  1.9042    -1.1238    -1.8194
C  1.8794    0.0498    -1.0530
H  1.0306    0.7287    -1.0975
C  2.9542    0.3689    -0.2139
H  2.9092    1.2863    0.3690
C  4.0649    -0.4823    -0.1318
O  6.2072    -0.9217    0.8328
C  5.2333    -0.1913    0.7441
O  5.0524    0.9767    1.4089
O  -0.2036    -0.5888    -2.6808
O  0.7859    -2.5290    -3.3982
C  6.1368    1.3324    2.2756
H  6.2720    0.5556    3.0366
H  7.0571    1.4417    1.6909
C  5.7947    2.6498    2.9435
H  6.5956    2.9649    3.6182
H  5.6353    3.4320    2.1939
H  4.8647    2.5623    3.5148
C  -5.4847    1.2710    3.5808
C  -3.5535    -0.5775    0.8778
H  -2.7404    -1.2972    0.8119
C  -3.9678    -0.1431    2.1424
H  -3.4689    -0.5341    3.0266
C  -5.0124    0.7822    2.2624
C  -5.6400    1.2698    1.1096
H  -6.4537    1.9890    1.1893
C  -5.2262    0.8356    -0.1539
H  -5.7246    1.2239    -1.0410
C  -4.1809    -0.0902    -0.2777
O  -4.3076    -0.1041    -2.6654
C  -3.7784    -0.5168    -1.6459
O  -2.7548    -1.4025    -1.5877
O  -4.8073    0.7320    4.6094
O  -6.3821    2.0720    3.7635
C  -2.2750    -1.8830    -2.8588
H  -3.1172    -2.1309    -3.5152
H  -1.7418    -2.8149    -2.6483
C  -1.3453    -0.8628    -3.5164
H  -1.8558    0.0951    -3.6547
H  -1.0204    -1.2043    -4.5060
H  -5.2212    1.1365    5.4010
