%chk=02-IsoP_014_gaussian.chk
%nproc=1
%mem=4000Mb
#p opt mp2/6-31g(d,p)

Conformer number 014. Energy MM = 27.220 kcal/mol

0 1
C          2.17880        1.28080       -9.01120
H          1.87700        0.25810       -9.27410
H          2.03170        1.86340       -9.92990
C          3.64970        1.29040       -8.63150
C          4.40860        2.54760       -8.96220
H          5.44410        2.33950       -9.24760
H          3.95820        3.06660       -9.81510
H          4.40960        3.23190       -8.10840
C          4.21610        0.20870       -8.05780
H          3.59320       -0.66540       -7.87050
C          5.62930        0.07110       -7.58940
H          6.21890        0.98380       -7.70780
H          5.63700       -0.18760       -6.52550
H          6.12690       -0.73230       -8.14120
C          1.84680        5.07100       -5.85940
H          2.17210        5.62220       -6.74810
H          0.99440        5.60220       -5.42570
H          2.67430        5.09300       -5.14120
C          1.47140        3.64760       -6.17490
C          1.04260        2.83100       -4.98710
H          1.27610        1.76910       -5.09380
H          1.55070        3.16980       -4.07780
H         -0.03580        2.93980       -4.83180
C          1.52270        3.18700       -7.44120
H          1.80790        3.88230       -8.22960
C          1.22420        1.78910       -7.91540
H          1.23550        1.07160       -7.08940
H          0.20600        1.78160       -8.32350

