%chk=02-IsoP_027_gaussian.chk
%nproc=1
%mem=4000Mb
#p opt mp2/6-31g(d,p)

Conformer number 027. Energy MM = 27.110 kcal/mol

0 1
C          2.19210        1.20430       -8.87750
H          1.89890        0.17650       -9.12830
H          2.04320        1.79210       -9.79420
C          3.67960        1.19620       -8.54520
C          4.57220        1.41370       -9.73840
H          5.56220        0.96680       -9.61410
H          4.13940        0.95170      -10.63270
H          4.68870        2.48570       -9.92920
C          4.14680        1.00950       -7.29320
H          3.44090        0.82800       -6.48530
C          5.57000        1.04410       -6.83310
H          6.28090        1.29940       -7.62140
H          5.67650        1.79470       -6.04210
H          5.85030        0.07150       -6.41800
C          1.35870        5.67290       -7.73230
H          2.15800        5.67300       -6.98330
H          1.73720        6.19070       -8.62010
H          0.51990        6.24520       -7.32450
C          0.91600        4.27980       -8.09420
C         -0.14110        4.20900       -9.16200
H         -0.75840        3.31110       -9.08360
H         -0.82360        5.06220       -9.08580
H          0.32400        4.23010      -10.15260
C          1.48120        3.20610       -7.51370
H          2.25650        3.36880       -6.76260
C          1.21730        1.75550       -7.82230
H          1.27070        1.17580       -6.89390
H          0.19390        1.61480       -8.18480

