%chk=02-IsoP_028_gaussian.chk
%nproc=1
%mem=4000Mb
#p opt mp2/6-31g(d,p)

Conformer number 028. Energy MM = 26.187 kcal/mol

0 1
C          2.16610        1.20320       -8.97190
H          1.85150        0.17820       -9.20680
H          2.01580        1.77670       -9.89720
C          3.64010        1.18710       -8.60240
C          4.03820        0.28020       -7.47140
H          4.72730        0.78040       -6.78190
H          3.17470       -0.03080       -6.87820
H          4.51080       -0.62790       -7.85850
C          4.52110        1.96090       -9.26850
H          4.15660        2.59330      -10.07760
C          5.99160        2.07200       -9.02060
H          6.34270        1.44330       -8.19830
H          6.54080        1.78220       -9.92180
H          6.24650        3.11010       -8.78340
C          2.48390        4.91450       -5.89380
H          2.34880        5.57730       -6.75340
H          1.89270        5.31470       -5.06420
H          3.54210        4.94780       -5.61460
C          2.07390        3.49750       -6.19440
C          2.21240        2.54890       -5.03440
H          2.39950        1.51970       -5.34870
H          3.05990        2.83290       -4.40050
H          1.30640        2.56500       -4.42220
C          1.64880        3.14780       -7.42150
H          1.59690        3.91770       -8.19460
C          1.23560        1.77710       -7.88960
H          1.15120        1.07250       -7.05770
H          0.22250        1.85270       -8.30740

