%chk=02-IsoP_030_gaussian.chk
%nproc=1
%mem=4000Mb
#p opt mp2/6-31g(d,p)

Conformer number 030. Energy MM = 27.340 kcal/mol

0 1
C          2.18090        1.14000       -8.88720
H          1.87490        0.09120       -8.99610
H          2.00890        1.58190       -9.87470
C          3.66390        1.20430       -8.55850
C          4.37970        2.47430       -8.94060
H          5.41950        2.29220       -9.22610
H          3.90960        2.94590       -9.80900
H          4.36950        3.18790       -8.11100
C          4.27420        0.15200       -7.97950
H          3.68480       -0.73550       -7.75720
C          5.70330        0.06620       -7.54690
H          6.26110        0.99250       -7.69830
H          5.74370       -0.16970       -6.47920
H          6.20980       -0.73400       -8.09490
C          1.87850        5.64430       -8.05750
H          2.26160        5.69680       -7.03360
H          2.68430        5.96090       -8.72810
H          1.05210        6.35620       -8.14280
C          1.42190        4.26040       -8.42370
C          0.89390        4.11250       -9.82420
H          0.21960        3.25580       -9.92510
H          0.32260        4.99920      -10.11900
H          1.72250        3.99080      -10.53050
C          1.53910        3.23840       -7.55200
H          1.93780        3.44010       -6.56140
C          1.26880        1.78480       -7.82930
H          1.38260        1.23410       -6.88450
H          0.21680        1.65570       -8.11740

