%chk=02-IsoP_035_gaussian.chk
%nproc=1
%mem=4000Mb
#p opt mp2/6-31g(d,p)

Conformer number 035. Energy MM = 30.724 kcal/mol

0 1
C          2.26410        1.29740       -8.92400
H          2.05670        0.29310       -9.31940
H          2.09860        1.99790       -9.75300
C          3.73940        1.37870       -8.55370
C          4.14330        2.05160       -7.26920
H          5.12880        2.52110       -7.34250
H          3.45500        2.85570       -6.99810
H          4.17230        1.32400       -6.45300
C          4.63990        0.85520       -9.41430
H          4.27480        0.41180      -10.33980
C          6.12550        0.78510       -9.25310
H          6.46760        1.05740       -8.25260
H          6.46430       -0.23860       -9.44360
H          6.61100        1.44540       -9.97920
C          0.48170       -0.20530       -4.46750
H          1.46740       -0.68260       -4.45390
H          0.39990        0.40480       -3.56140
H         -0.27520       -0.99510       -4.42690
C          0.28010        0.65130       -5.68750
C         -1.00870        1.42490       -5.71380
H         -1.29940        1.72920       -6.72230
H         -1.82850        0.81150       -5.32270
H         -0.92520        2.32200       -5.09160
C          1.22220        0.71060       -6.65020
H          2.11550        0.09980       -6.53180
C          1.19190        1.60740       -7.85880
H          0.21710        1.51680       -8.35280
H          1.29060        2.65070       -7.53790

