%chk=02-IsoP_001_gaussian.chk
%nproc=1
%mem=4000Mb
#p opt mp2/6-31g(d,p)

Conformer number 001. Energy MM = 26.346 kcal/mol

0 1
C          2.15490        1.22890       -8.97980
H          1.83860        0.19060       -9.14760
H          1.98400        1.74730       -9.93160
C          3.63160        1.27700       -8.63030
C          4.32760        2.57770       -8.92830
H          5.38860        2.43770       -9.15450
H          3.88980        3.06240       -9.80760
H          4.23390        3.26230       -8.07930
C          4.23450        0.20570       -8.07860
H          3.64100       -0.69170       -7.90470
C          5.64870        0.10030       -7.60400
H          6.22110        1.02220       -7.72730
H          5.65590       -0.15090       -6.53850
H          6.16460       -0.69880       -8.14570
C         -2.59560        2.12620       -7.69520
H         -2.74200        1.74190       -8.71080
H         -3.14200        1.47020       -7.00920
H         -3.04360        3.12530       -7.65130
C         -1.14360        2.18950       -7.31500
C         -0.87490        2.66670       -5.91080
H          0.13050        3.08120       -5.79520
H         -1.57660        3.46160       -5.63370
H         -0.99350        1.84020       -5.20290
C         -0.17190        1.84450       -8.18430
H         -0.45520        1.52670       -9.18450
C          1.30130        1.85350       -7.86680
H          1.62250        2.88800       -7.70180
H          1.47030        1.29350       -6.93860

