%chk=02-IsoP_013_gaussian.chk
%nproc=1
%mem=4000Mb
#p opt mp2/6-31g(d,p)

Conformer number 013. Energy MM = 27.094 kcal/mol

0 1
C          2.17280        1.17470       -8.95300
H          1.89870        0.15100       -9.23990
H          2.01790        1.77650       -9.85820
C          3.64270        1.21790       -8.57320
C          4.21360       -0.04360       -7.98110
H          4.93560        0.16920       -7.18710
H          3.43660       -0.66840       -7.53200
H          4.70070       -0.63690       -8.76140
C          4.38050        2.32250       -8.80510
H          3.89330        3.19120       -9.24830
C          5.84040        2.50690       -8.53090
H          6.32160        1.61830       -8.11680
H          6.35850        2.76210       -9.46030
H          5.98170        3.32980       -7.82410
C          1.47370        0.56570       -4.12790
H          1.69550       -0.47130       -4.40420
H          2.32010        0.93530       -3.53950
H          0.58210        0.56280       -3.49400
C          1.26310        1.44360       -5.33360
C          1.05550        2.90000       -5.02880
H          0.45670        3.40060       -5.79500
H          0.51080        3.02210       -4.08560
H          2.01820        3.41360       -4.93840
C          1.26720        0.92370       -6.57520
H          1.36140       -0.15350       -6.68680
C          1.20560        1.69320       -7.87150
H          0.18330        1.62050       -8.26150
H          1.40990        2.75860       -7.70920

