%chk=02-IsoP_007_gaussian.chk
%nproc=1
%mem=4000Mb
#p opt mp2/6-31g(d,p)

Conformer number 007. Energy MM = 25.221 kcal/mol

0 1
C          2.21630        1.28380       -8.97570
H          1.92540        0.26370       -9.25490
H          2.03280        1.89040       -9.87010
C          3.69870        1.32770       -8.63760
C          4.38030        2.64390       -8.88840
H          5.45840        2.53560       -9.04090
H          3.99150        3.11400       -9.79850
H          4.21080        3.32560       -8.05060
C          4.31040        0.23020       -8.14990
H          3.71500       -0.67240       -8.01210
C          5.72620        0.09520       -7.69030
H          6.30400        1.01730       -7.77640
H          5.73670       -0.20180       -6.63570
H          6.23140       -0.68360       -8.26780
C          0.72100       -0.99410       -5.13400
H          1.53270       -0.62070       -4.49890
H         -0.19690       -0.99410       -4.53740
H          0.96310       -2.02800       -5.40230
C          0.53910       -0.16480       -6.37440
C         -0.56680       -0.62310       -7.28380
H         -0.45160       -0.25520       -8.30940
H         -0.58370       -1.71600       -7.34670
H         -1.53340       -0.28340       -6.90220
C          1.35130        0.87820       -6.63230
H          2.14340        1.11510       -5.92220
C          1.31280        1.78360       -7.83830
H          0.28600        1.87840       -8.20970
H          1.60920        2.79220       -7.52930

