%chk=02-IsoP_009_gaussian.chk
%nproc=1
%mem=4000Mb
#p opt mp2/6-31g(d,p)

Conformer number 009. Energy MM = 27.427 kcal/mol

0 1
C          2.16130        1.19400       -8.94490
H          1.87550        0.16010       -9.18300
H          1.99860        1.77600       -9.85950
C          3.63380        1.21710       -8.55640
C          4.03820        0.34680       -7.39370
H          4.83840        0.79950       -6.80460
H          3.21400        0.18570       -6.69510
H          4.36450       -0.63390       -7.75230
C          4.51150        1.97690       -9.24460
H          4.14570        2.57560      -10.07720
C          5.98540        2.09100       -9.01070
H          6.35040        1.46320       -8.19470
H          6.52490        1.79850       -9.91700
H          6.24280        3.12950       -8.78000
C         -2.53200        2.66520       -8.05660
H         -2.75440        1.85810       -8.76300
H         -3.13740        2.49980       -7.16100
H         -2.84330        3.60870       -8.51790
C         -1.07210        2.71640       -7.69150
C         -0.71420        3.77320       -6.68050
H          0.29560        4.16550       -6.81840
H         -1.38880        4.63510       -6.76000
H         -0.80180        3.36970       -5.66680
C         -0.18840        1.84420       -8.21060
H         -0.54740        1.08710       -8.90880
C          1.26350        1.74790       -7.82720
H          1.65800        2.72310       -7.52410
H          1.31340        1.08970       -6.95310

