%chk=02-IsoP_033_gaussian.chk
%nproc=1
%mem=4000Mb
#p opt mp2/6-31g(d,p)

Conformer number 033. Energy MM = 28.138 kcal/mol

0 1
C          2.20250        1.27260       -8.95430
H          1.88780        0.26050       -9.24140
H          2.12380        1.88740       -9.86130
C          3.67900        1.20720       -8.57030
C          4.57140        0.77160       -9.70530
H          5.47260        0.26040       -9.35390
H          4.05150        0.05650      -10.35410
H          4.86330        1.63460      -10.31320
C          4.15730        1.52500       -7.34960
H          3.46570        1.79540       -6.55820
C          5.58290        1.63390       -6.91610
H          6.30200        1.36940       -7.69500
H          5.79020        2.66480       -6.61290
H          5.75920        0.98400       -6.05400
C          1.81700        5.08550       -5.89760
H          2.16130        5.62670       -6.78400
H          0.98520        5.64540       -5.45990
H          2.64410        5.07270       -5.18220
C          1.39000        3.67830       -6.21570
C          0.96260        2.86060       -5.02760
H          1.23080        1.80620       -5.11960
H          1.44760        3.22000       -4.11250
H         -0.11980        2.93950       -4.88940
C          1.43900        3.21330       -7.48170
H          1.74860        3.89610       -8.27480
C          1.16660        1.80330       -7.93970
H          1.10650        1.09930       -7.10430
H          0.18220        1.79180       -8.42400

