%chk=02-IsoP_042_gaussian.chk
%nproc=1
%mem=4000Mb
#p opt mp2/6-31g(d,p)

Conformer number 042. Energy MM = 29.637 kcal/mol

0 1
C          2.27870        1.19670       -8.92350
H          1.92860        0.18090       -9.15220
H          2.20270        1.73820       -9.87290
C          3.74420        1.13180       -8.51550
C          4.32870       -0.25330       -8.44070
H          5.19700       -0.30900       -7.78020
H          3.59630       -0.96630       -8.04980
H          4.62840       -0.58160       -9.44150
C          4.46010        2.25260       -8.30480
H          3.97260        3.21650       -8.41880
C          5.90850        2.37690       -7.94620
H          6.45360        1.43210       -7.99380
H          6.39420        3.07290       -8.63840
H          6.00460        2.78410       -6.93460
C          1.67990        5.68120       -8.00640
H          2.04780        5.72700       -6.97620
H          2.47500        6.06500       -8.65660
H          0.81430        6.34370       -8.08510
C          1.31480        4.28080       -8.42020
C          0.82790        4.14810       -9.83610
H          0.28140        3.21600      -10.00520
H          0.14360        4.96520      -10.08480
H          1.67470        4.18560      -10.52910
C          1.47460        3.24570       -7.57150
H          1.83920        3.44710       -6.56440
C          1.29940        1.78060       -7.88060
H          1.39980        1.21800       -6.94330
H          0.26860        1.61190       -8.21630

