%chk=02-IsoP_019_gaussian.chk
%nproc=1
%mem=4000Mb
#p opt mp2/6-31g(d,p)

Conformer number 019. Energy MM = 25.810 kcal/mol

0 1
C          2.17710        1.20110       -8.88600
H          1.89780        0.17160       -9.14610
H          2.05410        1.80030       -9.79860
C          3.65930        1.21660       -8.52330
C          4.55370        0.74860       -9.64440
H          5.45060        0.24330       -9.27570
H          4.03520        0.02560      -10.28100
H          4.85220        1.59770      -10.26780
C          4.13840        1.62170       -7.32930
H          3.44490        1.94230       -6.55150
C          5.56810        1.73120       -6.90260
H          6.28080        1.46120       -7.68400
H          5.77880        2.76280       -6.60530
H          5.74530        1.08440       -6.03800
C         -2.28140        2.85220       -9.20490
H         -2.76510        1.90420       -8.94650
H         -2.80890        3.64990       -8.67070
H         -2.40780        3.00990      -10.28080
C         -0.82270        2.86500       -8.84180
C         -0.11080        4.16290       -9.11190
H          0.96150        4.02330       -9.28040
H         -0.50630        4.63880      -10.01610
H         -0.24620        4.85260       -8.27220
C         -0.22250        1.77910       -8.31860
H         -0.80090        0.86700       -8.17650
C          1.19810        1.71640       -7.82220
H          1.50490        2.70670       -7.46430
H          1.22070        1.05730       -6.94540

