%chk=02-IsoP_036_gaussian.chk
%nproc=1
%mem=4000Mb
#p opt mp2/6-31g(d,p)

Conformer number 036. Energy MM = 25.902 kcal/mol

0 1
C          2.14730        1.17360       -9.00740
H          1.82480        0.13410       -9.15520
H          1.89640        1.69190       -9.94040
C          3.65160        1.23070       -8.79040
C          4.30580        2.54120       -9.13360
H          5.38620        2.45010       -9.27410
H          3.90550        2.93480      -10.07380
H          4.12120        3.27890       -8.34780
C          4.29950        0.16140       -8.28790
H          3.72160       -0.73760       -8.07420
C          5.73060        0.06750       -7.86670
H          6.27880        1.00620       -7.96590
H          5.77420       -0.22300       -6.81140
H          6.24520       -0.70030       -8.45200
C          2.46380        0.35470       -4.37680
H          1.77740       -0.49600       -4.45100
H          3.48220       -0.04330       -4.33520
H          2.25360        0.87050       -3.43340
C          2.32970        1.30210       -5.53780
C          3.23510        2.50200       -5.46550
H          2.95080        3.29830       -6.15620
H          3.21110        2.93680       -4.46100
H          4.26580        2.20760       -5.68580
C          1.50120        1.02280       -6.56450
H          0.91070        0.10770       -6.52050
C          1.34420        1.79570       -7.85070
H          0.27950        1.78720       -8.11750
H          1.60670        2.85070       -7.73000

