%chk=02-IsoP_005_gaussian.chk
%nproc=1
%mem=4000Mb
#p opt mp2/6-31g(d,p)

Conformer number 005. Energy MM = 25.430 kcal/mol

0 1
C          2.16120        1.33000       -8.96330
H          1.85420        0.31270       -9.24520
H          2.01600        1.94680       -9.86050
C          3.63270        1.34560       -8.59020
C          4.20610        2.69730       -8.26190
H          5.25580        2.78580       -8.55610
H          3.66860        3.48790       -8.79580
H          4.12050        2.89080       -7.18720
C          4.35020        0.20520       -8.57390
H          3.85590       -0.72870       -8.84010
C          5.78950        0.04560       -8.19540
H          6.25850        0.97460       -7.86350
H          5.87390       -0.67490       -7.37610
H          6.35660       -0.33860       -9.04810
C         -2.42280        0.61490       -8.33940
H         -2.72950        1.55170       -8.81550
H         -2.60780       -0.19820       -9.04940
H         -3.06140        0.46530       -7.46200
C         -0.97490        0.62760       -7.93300
C         -0.48060       -0.64040       -7.29300
H          0.31810       -0.46230       -6.56800
H         -1.28760       -1.14270       -6.74990
H         -0.10830       -1.32620       -8.06160
C         -0.19730        1.70290       -8.16640
H         -0.63270        2.57180       -8.65840
C          1.26300        1.83660       -7.82910
H          1.46520        2.89700       -7.63160
H          1.49900        1.31440       -6.89260

