%chk=02-IsoP_039_gaussian.chk
%nproc=1
%mem=4000Mb
#p opt mp2/6-31g(d,p)

Conformer number 039. Energy MM = 27.337 kcal/mol

0 1
C          2.23280        1.41410       -8.89460
H          1.95360        0.41660       -9.26100
H          2.08040        2.10300       -9.73470
C          3.72580        1.39770       -8.57930
C          4.56110        0.75080       -9.65720
H          5.43110        0.22690       -9.25220
H          3.98420        0.00110      -10.20930
H          4.90020        1.50790      -10.37140
C          4.26390        1.89670       -7.44770
H          3.62080        2.38240       -6.71910
C          5.69930        1.88260       -7.02800
H          6.38190        1.53960       -7.80700
H          6.00690        2.89310       -6.73910
H          5.81540        1.23160       -6.15590
C          0.64840       -1.08590       -5.17910
H          1.44670       -0.70860       -4.52940
H         -0.27450       -1.11240       -4.59300
H          0.91640       -2.11020       -5.46190
C          0.46710       -0.23950       -6.40890
C         -0.59820       -0.70320       -7.35920
H         -0.41020       -0.38240       -8.38790
H         -0.64760       -1.79830       -7.37720
H         -1.57500       -0.32160       -7.04570
C          1.25150        0.83570       -6.61870
H          1.99820        1.07100       -5.85930
C          1.22620        1.78400       -7.78770
H          0.22170        1.81590       -8.22530
H          1.41560        2.80280       -7.42760

