%chk=02-IsoP_025_gaussian.chk
%nproc=1
%mem=4000Mb
#p opt mp2/6-31g(d,p)

Conformer number 025. Energy MM = 26.862 kcal/mol

0 1
C          2.16880        1.32690       -8.93230
H          1.87860        0.29820       -9.18850
H          2.04200        1.92680       -9.84330
C          3.65010        1.31190       -8.57090
C          4.54230        0.78310       -9.66530
H          5.40570        0.24000       -9.26920
H          4.00380        0.07520      -10.30450
H          4.89660        1.60660      -10.29300
C          4.12930        1.72300       -7.37630
H          3.44080        2.08840       -6.61730
C          5.55090        1.76440       -6.91850
H          6.26690        1.45660       -7.68100
H          5.80060        2.78630       -6.61730
H          5.67190        1.11390       -6.04710
C         -2.45830        0.59680       -8.35330
H         -2.78070        1.53360       -8.81840
H         -2.65020       -0.21500       -9.05970
H         -3.07770        0.44060       -7.46390
C         -1.00400        0.62220       -7.97000
C         -0.49370       -0.63180       -7.31140
H          0.28840       -0.43350       -6.57510
H         -1.29820       -1.14690       -6.77630
H         -0.09570       -1.31500       -8.06810
C         -0.23790        1.70090       -8.22470
H         -0.67970        2.56190       -8.72500
C          1.21060        1.85750       -7.85620
H          1.40490        2.92270       -7.67860
H          1.39470        1.35790       -6.89830

