%chk=02-IsoP_040_gaussian.chk
%nproc=1
%mem=4000Mb
#p opt mp2/6-31g(d,p)

Conformer number 040. Energy MM = 29.379 kcal/mol

0 1
C          2.15880        1.24610       -8.98870
H          1.86360        0.21430       -9.22430
H          1.97130        1.82910       -9.89910
C          3.65490        1.27920       -8.69070
C          4.46150        0.16200       -9.29550
H          5.23220       -0.20260       -8.60830
H          3.83920       -0.70190       -9.54260
H          4.94400        0.50660      -10.21720
C          4.20550        2.22710       -7.90950
H          3.57720        3.03680       -7.54960
C          5.61020        2.30980       -7.40440
H          6.27850        1.56510       -7.84230
H          6.02380        3.30000       -7.61330
H          5.60950        2.16760       -6.32080
C          2.10520        0.53750       -4.23390
H          1.83990       -0.50110       -4.45630
H          3.16920        0.55890       -3.97080
H          1.52590        0.85080       -3.35970
C          1.84680        1.45890       -5.39560
C          2.18330        2.89990       -5.12380
H          1.64200        3.59010       -5.77640
H          1.92430        3.17260       -4.09700
H          3.25840        3.06730       -5.24820
C          1.40060        0.97670       -6.57480
H          1.19110       -0.08850       -6.65100
C          1.21190        1.73570       -7.86720
H          0.17650        1.58260       -8.19740
H          1.32200        2.81550       -7.73630

