%chk=02-IsoP_006_gaussian.chk
%nproc=1
%mem=4000Mb
#p opt mp2/6-31g(d,p)

Conformer number 006. Energy MM = 26.902 kcal/mol

0 1
C          2.16050        1.18560       -8.94900
H          1.88660        0.15130       -9.19510
H          1.97630        1.76420       -9.86330
C          3.63790        1.24070       -8.60350
C          4.47900        2.12980       -9.47820
H          5.50520        1.76300       -9.57690
H          4.07780        2.17520      -10.49690
H          4.50210        3.14680       -9.07520
C          4.12840        0.51910       -7.57560
H          3.44400       -0.11270       -7.00990
C          5.53470        0.49710       -7.06740
H          6.20750        1.16090       -7.61420
H          5.54610        0.80820       -6.01800
H          5.93360       -0.51970       -7.12680
C         -2.24490        2.85770       -9.15280
H         -2.72320        1.90910       -8.88620
H         -2.77450        3.65620       -8.62330
H         -2.37500        3.00750      -10.22900
C         -0.78320        2.87740       -8.79560
C         -0.07090        4.16890       -9.09460
H          0.99670        4.01780       -9.29040
H         -0.48430        4.64030       -9.99120
H         -0.17750        4.86360       -8.25680
C         -0.18000        1.79770       -8.26510
H         -0.76000        0.89090       -8.10200
C          1.25930        1.71910       -7.82880
H          1.61170        2.69860       -7.48490
H          1.30970        1.06140       -6.95190

