%chk=02-IsoP_004_gaussian.chk
%nproc=1
%mem=4000Mb
#p opt mp2/6-31g(d,p)

Conformer number 004. Energy MM = 27.498 kcal/mol

0 1
C          2.17910        1.21010       -8.95500
H          1.87530        0.17900       -9.17710
H          2.03220        1.76910       -9.88780
C          3.64620        1.21080       -8.56320
C          4.02540        0.35310       -7.38660
H          4.81960        0.80900       -6.78850
H          3.18600        0.20150       -6.70400
H          4.35510       -0.63350       -7.73130
C          4.53290        1.95400       -9.25690
H          4.17490        2.54660      -10.09790
C          6.00350        2.06850       -9.01390
H          6.35950        1.44370       -8.19140
H          6.55010        1.77430       -9.91470
H          6.25700        3.10770       -8.78410
C          1.38840        5.27300       -6.12040
H          2.18620        5.64270       -6.77320
H          0.53340        5.95060       -6.22050
H          1.75580        5.32540       -5.08990
C          0.98030        3.86620       -6.45720
C         -0.10760        3.28470       -5.59800
H         -0.01560        2.20010       -5.48770
H         -0.07400        3.70570       -4.58810
H         -1.08670        3.50940       -6.03230
C          1.56310        3.19820       -7.47100
H          2.33420        3.70370       -8.05050
C          1.23130        1.78880       -7.88880
H          1.23600        1.13160       -7.01280
H          0.21240        1.77360       -8.29540

