%chk=02-IsoP_010_gaussian.chk
%nproc=1
%mem=4000Mb
#p opt mp2/6-31g(d,p)

Conformer number 010. Energy MM = 25.468 kcal/mol

0 1
C          2.14210        1.23150       -8.88730
H          1.83500        0.18700       -9.02960
H          1.97490        1.72600       -9.85410
C          3.61930        1.25480       -8.53160
C          4.04050        0.33440       -7.41650
H          4.84110        0.76720       -6.80980
H          3.21460        0.12770       -6.72950
H          4.37720       -0.62280       -7.82620
C          4.48350        2.02970       -9.21820
H          4.10010        2.65680      -10.02200
C          5.96580        2.12130       -9.02700
H          6.34580        1.46830       -8.23830
H          6.47390        1.84590       -9.95670
H          6.24360        3.15020       -8.77840
C         -2.54810        0.96530       -7.90600
H         -2.73090        1.57750       -8.79590
H         -2.84160       -0.06270       -8.14210
H         -3.19830        1.33880       -7.10820
C         -1.10720        1.01050       -7.46650
C         -0.79410        0.16030       -6.26480
H          0.01380        0.57310       -5.65560
H         -1.66590        0.08360       -5.60650
H         -0.51830       -0.85080       -6.58090
C         -0.20490        1.75730       -8.13180
H         -0.53980        2.33230       -8.99520
C          1.26330        1.90680       -7.82400
H          1.49610        2.97780       -7.78240
H          1.49620        1.51410       -6.83200

