%chk=02-IsoP_041_gaussian.chk
%nproc=1
%mem=4000Mb
#p opt mp2/6-31g(d,p)

Conformer number 041. Energy MM = 26.841 kcal/mol

0 1
C          2.17400        1.26480       -9.06560
H          1.82410        0.25670       -9.32550
H          1.97480        1.87570       -9.95540
C          3.66820        1.22340       -8.79050
C          4.45110        2.44590       -9.19260
H          5.44670        2.18350       -9.56490
H          3.95180        2.98740      -10.00300
H          4.56710        3.13020       -8.34840
C          4.22460        0.14970       -8.19500
H          3.58740       -0.69710       -7.94350
C          5.64200        0.01590       -7.73510
H          6.22680        0.93090       -7.86730
H          5.65370       -0.22220       -6.66710
H          6.13920       -0.79430       -8.27430
C          2.86210        4.90450       -6.08370
H          2.29730        5.60710       -6.70310
H          2.65420        5.13930       -5.03540
H          3.92750        5.07270       -6.27350
C          2.51190        3.47070       -6.38080
C          3.18870        2.47190       -5.48150
H          3.06690        1.43830       -5.80440
H          4.26560        2.66850       -5.44230
H          2.78640        2.54830       -4.46380
C          1.71090        3.15590       -7.42040
H          1.30110        3.96160       -8.02820
C          1.33220        1.77400       -7.88160
H          1.37460        1.05210       -7.05650
H          0.27930        1.79640       -8.18620

