%chk=03-IsoP_004_gaussian.chk
%nproc=1
%mem=1000Mb
#p opt pm3

Conformer number 004. Energy MM = 23.287 kcal/mol

0 1
C  0.8317    0.4705    0.4387
H  0.4615    1.3989    0.8942
H  0.9860    -0.2139    1.2814
C  2.1427    0.7566    -0.2642
C  2.2205    2.0991    -0.9455
H  3.1891    2.2630    -1.4296
H  2.0746    2.9033    -0.2171
H  1.4481    2.1829    -1.7164
C  3.1965    -0.0834    -0.2841
H  4.1033    0.2304    -0.8005
C  3.2828    -1.4515    0.3148
H  4.0046    -1.4523    1.1371
H  2.3275    -1.8225    0.6926
H  3.6303    -2.1602    -0.4440
C  -2.8473    1.6092    -0.5509
H  -3.5707    1.4759    -1.3617
H  -3.2316    2.3755    0.1311
H  -1.9255    2.0053    -0.9829
C  -2.6528    0.3132    0.1867
C  -3.8661    -0.1554    0.9469
H  -3.6915    -1.1039    1.4656
H  -4.1528    0.5868    1.6991
H  -4.7082    -0.3014    0.2625
C  -1.5104    -0.4009    0.2090
H  -1.4832    -1.3190    0.7961
C  -0.2240    -0.1005    -0.5133
H  0.1407    -1.0373    -0.9542
H  -0.3882    0.5762    -1.3578

