%chk=03-IsoP_008_gaussian.chk
%nproc=1
%mem=1000Mb
#p opt pm3

Conformer number 008. Energy MM = 23.486 kcal/mol

0 1
C  0.8202    -0.1970    -1.3304
H  0.5910    -1.1634    -0.8682
H  1.1233    -0.4453    -2.3564
C  1.9936    0.4790    -0.6455
C  2.7034    1.5199    -1.4745
H  3.0608    1.0804    -2.4115
H  2.0290    2.3482    -1.7123
H  3.5718    1.9412    -0.9568
C  2.4315    0.1865    0.5956
H  3.2998    0.7215    0.9794
C  1.8552    -0.7954    1.5664
H  2.5788    -1.5935    1.7582
H  0.9233    -1.2532    1.2296
H  1.6470    -0.2901    2.5151
C  -2.6236    0.7392    1.8766
H  -3.6580    1.0939    1.8213
H  -2.5826    -0.1104    2.5661
H  -2.0188    1.5449    2.3061
C  -2.1410    0.3266    0.5105
C  -2.9455    -0.7738    -0.1235
H  -2.5084    -1.1527    -1.0501
H  -3.0225    -1.6253    0.5614
H  -3.9569    -0.4195    -0.3474
C  -1.0636    0.9175    -0.0422
H  -0.5479    1.6914    0.5271
C  -0.4564    0.6543    -1.3950
H  -0.2459    1.6205    -1.8696
H  -1.1743    0.1611    -2.0583

