%chk=01-IsoP_1905_gaussian.chk
%nproc=1
%mem=4000Mb
#p opt mp2/6-31g(d,p)

Conformer number 1905. Energy MM = 23.242 kcal/mol

0 1
C  0.8945    -0.7843    -0.1028
H  0.6103    -0.3769    -1.0804
H  0.9223    -1.8726    -0.2489
C  2.2754    -0.3041    0.2934
C  3.0440    -1.2400    1.1906
H  2.5057    -1.3975    2.1305
H  3.1803    -2.2094    0.7001
H  4.0377    -0.8530    1.4400
C  2.8260    0.8544    -0.1207
H  3.8374    1.0966    0.2048
C  2.1994    1.9028    -0.9847
H  1.1386    1.7303    -1.1792
H  2.7233    1.9557    -1.9438
H  2.2862    2.8781    -0.4949
C  -3.8661    -0.8498    -0.2941
H  -4.0891    -0.7494    -1.3614
H  -4.6723    -0.3769    0.2764
H  -3.8708    -1.9179    -0.0526
C  -2.5478    -0.1958    0.0280
C  -2.4959    1.2756    -0.2788
H  -3.1773    1.8218    0.3814
H  -2.8030    1.4543    -1.3150
H  -1.4990    1.7078    -0.1663
C  -1.5289    -0.9170    0.5352
H  -1.6791    -1.9844    0.6982
C  -0.1662    -0.4225    0.9417
H  0.0828    -0.8830    1.9062
H  -0.1684    0.6571    1.1240

