%chk=01-IsoP_556_gaussian.chk
%nproc=1
%mem=4000Mb
#p opt mp2/6-31g(d,p)

Conformer number 556. Energy MM = 23.287 kcal/mol

0 1
C  -0.7586    -0.0392    -0.6618
H  -0.9329    0.8752    -1.2413
H  -0.2080    -0.7029    -1.3421
C  -2.0725    -0.6955    -0.2911
C  -2.0101    -2.1913    -0.1147
H  -1.3127    -2.4539    0.6871
H  -1.6725    -2.6689    -1.0403
H  -2.9847    -2.6198    0.1421
C  -3.2393    -0.0370    -0.1447
H  -4.1333    -0.6094    0.1013
C  -3.4752    1.4358    -0.2594
H  -2.5557    2.0182    -0.3501
H  -3.9992    1.7915    0.6336
H  -4.1049    1.6446    -1.1295
C  3.8150    1.2380    -0.2495
H  3.5488    2.2827    -0.4420
H  4.5541    1.2273    0.5583
H  4.2839    0.8421    -1.1563
C  2.6195    0.4027    0.1279
C  2.9372    -1.0396    0.4114
H  2.0491    -1.6606    0.5491
H  3.4989    -1.4718    -0.4239
H  3.5492    -1.1194    1.3157
C  1.3889    0.9490    0.1803
H  1.2789    2.0056    -0.0649
C  0.0995    0.2754    0.5678
H  0.2822    -0.6314    1.1529
H  -0.4455    0.9527    1.2381

