%chk=01-IsoP_334_gaussian.chk
%nproc=1
%mem=4000Mb
#p opt mp2/6-31g(d,p)

Conformer number 334. Energy MM = 23.242 kcal/mol

0 1
C  -0.4484    -1.0842    0.2852
H  -0.6704    -0.4189    1.1282
H  -0.0166    -1.9843    0.7431
C  -1.7212    -1.4633    -0.4436
C  -1.6895    -2.8060    -1.1276
H  -2.6343    -3.0375    -1.6308
H  -1.5007    -3.5996    -0.3974
H  -0.8982    -2.8320    -1.8833
C  -2.8312    -0.7000    -0.4837
H  -3.7034    -1.0758    -1.0180
C  -3.0246    0.6580    0.1137
H  -3.4046    1.3421    -0.6520
H  -3.7615    0.6072    0.9209
H  -2.1056    1.0940    0.5115
C  3.5450    1.3426    1.2166
H  4.1044    0.4057    1.3085
H  4.1705    2.0498    0.6621
H  3.3861    1.7352    2.2264
C  2.2249    1.1548    0.5155
C  1.4231    2.4173    0.3576
H  1.9353    3.1056    -0.3225
H  0.4164    2.2469    -0.0305
H  1.3084    2.9132    1.3276
C  1.8373    -0.0657    0.0962
H  2.4970    -0.9129    0.2842
C  0.5764    -0.4254    -0.6436
H  0.1371    0.4478    -1.1371
H  0.8484    -1.1145    -1.4531

