%chk=01-IsoP_2638_gaussian.chk
%nproc=1
%mem=4000Mb
#p opt mp2/6-31g(d,p)

Conformer number 2638. Energy MM = 23.242 kcal/mol

0 1
C  0.8046    -0.8315    -0.3313
H  0.6986    -0.1264    -1.1644
H  0.7136    -1.8252    -0.7903
C  2.1743    -0.7044    0.3031
C  2.7007    -1.9632    0.9435
H  2.7745    -2.7645    0.2011
H  3.6960    -1.8224    1.3783
H  2.0334    -2.2921    1.7463
C  2.9136    0.4225    0.2982
H  3.8985    0.4020    0.7639
C  2.5369    1.7562    -0.2656
H  1.4956    1.8137    -0.5902
H  2.6834    2.5284    0.4966
H  3.1793    1.9937    -1.1188
C  -2.2511    1.6994    -0.1711
H  -2.9359    2.1378    0.5620
H  -2.4011    2.2079    -1.1297
H  -1.2299    1.9209    0.1470
C  -2.5255    0.2282    -0.3194
C  -3.8647    -0.0940    -0.9295
H  -4.0337    -1.1725    -1.0165
H  -4.6701    0.3197    -0.3138
H  -3.9377    0.3359    -1.9338
C  -1.6770    -0.7569    0.0345
H  -1.9792    -1.7897    -0.1391
C  -0.3247    -0.6163    0.6813
H  -0.2141    0.3550    1.1744
H  -0.2583    -1.3624    1.4833

