%chk=01-IsoP_3819_gaussian.chk
%nproc=1
%mem=4000Mb
#p opt mp2/6-31g(d,p)

Conformer number 3819. Energy MM = 23.287 kcal/mol

0 1
C  0.7415    -0.3248    0.5597
H  0.9388    -1.4008    0.4839
H  0.1487    -0.2112    1.4774
C  2.0364    0.4464    0.7123
C  1.9178    1.7482    1.4632
H  2.8801    2.2627    1.5561
H  1.5394    1.5696    2.4750
H  1.2296    2.4261    0.9486
C  3.2319    0.0282    0.2516
H  4.1077    0.6500    0.4358
C  3.5242    -1.2150    -0.5274
H  4.1411    -1.8921    0.0711
H  4.0832    -0.9551    -1.4321
H  2.6271    -1.7522    -0.8428
C  -3.7658    -1.1828    -0.7315
H  -4.2716    -1.4178    0.2107
H  -4.4853    -0.7035    -1.4034
H  -3.4622    -2.1294    -1.1909
C  -2.5963    -0.2664    -0.4822
C  -2.9651    1.0521    0.1399
H  -2.0998    1.6477    0.4394
H  -3.5634    0.8873    1.0426
H  -3.5582    1.6467    -0.5624
C  -1.3438    -0.6500    -0.7979
H  -1.1971    -1.6406    -1.2289
C  -0.0738    0.1447    -0.6494
H  -0.2790    1.2178    -0.5831
H  0.5138    0.0142    -1.5674

