%chk=01-IsoP_2061_gaussian.chk
%nproc=1
%mem=4000Mb
#p opt mp2/6-31g(d,p)

Conformer number 2061. Energy MM = 23.242 kcal/mol

0 1
C  -0.0812    -0.0686    1.0967
H  -0.6068    0.5331    1.8504
H  0.8235    0.5044    0.8608
C  0.2801    -1.4101    1.7003
C  -0.7439    -1.9808    2.6476
H  -1.6971    -2.1364    2.1325
H  -0.9084    -1.2962    3.4861
H  -0.4323    -2.9447    3.0638
C  1.4301    -2.0693    1.4564
H  1.6032    -3.0198    1.9604
C  2.5344    -1.6627    0.5325
H  3.4363    -1.4355    1.1088
H  2.7638    -2.4898    -0.1471
H  2.2898    -0.7945    -0.0835
C  0.3441    1.1626    -2.6546
H  1.1516    1.8970    -2.7464
H  0.7871    0.2578    -2.2325
H  -0.0197    0.9235    -3.6592
C  -0.7734    1.7263    -1.8209
C  -1.2767    3.0682    -2.2850
H  -2.0931    3.4453    -1.6602
H  -1.6499    2.9977    -3.3119
H  -0.4689    3.8069    -2.2577
C  -1.3063    1.1305    -0.7362
H  -2.1025    1.6462    -0.1991
C  -0.9493    -0.2128    -0.1574
H  -1.8850    -0.7299    0.0899
H  -0.4493    -0.8483    -0.8956

