%chk=01-IsoP_203_gaussian.chk
%nproc=1
%mem=4000Mb
#p opt mp2/6-31g(d,p)

Conformer number 203. Energy MM = 23.242 kcal/mol

0 1
C  0.8605    0.2283    -0.8099
H  0.8386    0.5466    -1.8609
H  0.6599    -0.8494    -0.8385
C  2.2381    0.4988    -0.2409
C  2.8979    1.7595    -0.7376
H  2.2947    2.6351    -0.4781
H  3.0119    1.7248    -1.8260
H  3.8936    1.9046    -0.3053
C  2.8750    -0.3112    0.6279
H  3.8757    -0.0360    0.9597
C  2.3606    -1.5770    1.2374
H  2.9451    -2.4281    0.8751
H  2.4692    -1.5278    2.3257
H  1.3061    -1.7661    1.0245
C  -2.3964    -1.0478    1.0696
H  -2.6286    -2.0861    0.8092
H  -1.3867    -1.0453    1.4861
H  -3.0871    -0.7275    1.8564
C  -2.5465    -0.1668    -0.1400
C  -3.8757    -0.2934    -0.8376
H  -3.9529    0.3658    -1.7087
H  -4.6890    -0.0341    -0.1519
H  -4.0262    -1.3211    -1.1842
C  -1.6015    0.6712    -0.6091
H  -1.8188    1.2473    -1.5087
C  -0.2419    0.9436    -0.0225
H  -0.0784    2.0285    -0.0467
H  -0.1972    0.6638    1.0351

