%chk=01-IsoP_341_gaussian.chk
%nproc=1
%mem=4000Mb
#p opt mp2/6-31g(d,p)

Conformer number 341. Energy MM = 23.287 kcal/mol

0 1
C  -0.6607    -0.0550    -0.5412
H  -0.0224    0.5366    -1.2114
H  -0.7408    -1.0366    -1.0233
C  -2.0202    0.6064    -0.4464
C  -1.9969    2.1137    -0.4474
H  -1.4262    2.4886    0.4081
H  -3.0021    2.5441    -0.3878
H  -1.5320    2.4854    -1.3663
C  -3.1902    -0.0603    -0.3898
H  -4.1154    0.5139    -0.3469
C  -3.3943    -1.5418    -0.3561
H  -3.8885    -1.8699    -1.2755
H  -2.4665    -2.1066    -0.2416
H  -4.0400    -1.8015    0.4890
C  2.8303    1.1634    0.9217
H  3.3031    1.3670    1.8879
H  3.5041    1.5070    0.1293
H  1.9264    1.7730    0.8532
C  2.5696    -0.3103    0.7741
C  3.8145    -1.1532    0.6777
H  4.4277    -1.0263    1.5759
H  4.4073    -0.8567    -0.1938
H  3.5881    -2.2200    0.5783
C  1.3493    -0.8785    0.7155
H  1.2852    -1.9593    0.5883
C  0.0114    -0.1973    0.8282
H  -0.6198    -0.8034    1.4909
H  0.0991    0.7776    1.3180

