%chk=01-IsoP_942_gaussian.chk
%nproc=1
%mem=4000Mb
#p opt mp2/6-31g(d,p)

Conformer number 942. Energy MM = 23.242 kcal/mol

0 1
C  -0.9009    -0.6467    -0.4675
H  -1.0446    -0.6206    0.6193
H  -1.0041    -1.7058    -0.7397
C  -1.9827    0.1502    -1.1671
C  -2.3209    -0.3172    -2.5595
H  -2.6645    -1.3566    -2.5379
H  -1.4418    -0.2541    -3.2085
H  -3.1135    0.2837    -3.0178
C  -2.6379    1.1911    -0.6159
H  -3.4171    1.6836    -1.1971
C  -2.4131    1.7971    0.7334
H  -1.5332    1.4033    1.2469
H  -3.2887    1.6278    1.3673
H  -2.2723    2.8777    0.6286
C  3.3433    -1.5360    1.5073
H  4.3212    -1.0435    1.4996
H  3.1018    -1.8155    2.5380
H  3.4319    -2.4589    0.9246
C  2.2902    -0.6102    0.9566
C  2.1377    0.6768    1.7196
H  1.9869    0.4668    2.7840
H  1.2857    1.2772    1.3928
H  3.0409    1.2863    1.6136
C  1.5652    -0.9598    -0.1240
H  1.7531    -1.9304    -0.5834
C  0.5045    -0.1493    -0.8202
H  0.5993    0.9174    -0.5919
H  0.6738    -0.2346    -1.9011

