%chk=01-IsoP_1937_gaussian.chk
%nproc=1
%mem=4000Mb
#p opt mp2/6-31g(d,p)

Conformer number 1937. Energy MM = 23.242 kcal/mol

0 1
C  -0.6116    1.0356    0.0440
H  -0.3124    2.0793    0.2097
H  -0.3738    0.8388    -1.0082
C  -2.1011    0.9048    0.2869
C  -2.6419    1.7525    1.4097
H  -2.1640    1.4834    2.3569
H  -2.4506    2.8121    1.2113
H  -3.7225    1.6299    1.5386
C  -2.9242    0.1206    -0.4370
H  -3.9865    0.1155    -0.1945
C  -2.5541    -0.7963    -1.5598
H  -2.9866    -0.4306    -2.4960
H  -2.9597    -1.7942    -1.3641
H  -1.4759    -0.9050    -1.6963
C  3.9643    -0.2837    -0.1132
H  4.2398    -0.1569    -1.1653
H  4.5479    -1.1115    0.3027
H  4.2555    0.6281    0.4189
C  2.4908    -0.5725    0.0098
C  2.0441    -1.8218    -0.6983
H  2.3747    -1.8003    -1.7424
H  2.4800    -2.7033    -0.2172
H  0.9592    -1.9481    -0.7135
C  1.6831    0.2582    0.6977
H  2.1196    1.1465    1.1544
C  0.2060    0.1061    0.9464
H  0.0181    0.3443    2.0010
H  -0.1184    -0.9317    0.8179

