%chk=01-IsoP_798_gaussian.chk
%nproc=1
%mem=4000Mb
#p opt mp2/6-31g(d,p)

Conformer number 798. Energy MM = 23.242 kcal/mol

0 1
C  -0.8738    -0.1499    -0.8177
H  -0.8733    -0.4420    -1.8765
H  -0.7731    -1.0924    -0.2663
C  -2.1927    0.5199    -0.4912
C  -2.7587    1.3844    -1.5884
H  -2.0671    2.1975    -1.8303
H  -2.9270    0.7893    -2.4919
H  -3.7155    1.8374    -1.3077
C  -2.8582    0.3642    0.6704
H  -3.8131    0.8738    0.7967
C  -2.4320    -0.4300    1.8646
H  -1.4103    -0.8095    1.7935
H  -2.4839    0.1999    2.7585
H  -3.1077    -1.2789    2.0066
C  3.7890    -1.0862    -0.5255
H  3.8293    -2.1502    -0.2702
H  3.8840    -1.0015    -1.6132
H  4.6541    -0.5870    -0.0768
C  2.5114    -0.4741    -0.0131
C  2.3400    -0.5583    1.4786
H  1.3555    -0.2324    1.8217
H  2.4646    -1.5939    1.8131
H  3.0934    0.0583    1.9794
C  1.6248    0.0785    -0.8641
H  1.8503    0.0638    -1.9305
C  0.3249    0.7575    -0.5235
H  0.3055    1.0877    0.5202
H  0.2592    1.6742    -1.1232

