%chk=01-IsoP_890_gaussian.chk
%nproc=1
%mem=4000Mb
#p opt mp2/6-31g(d,p)

Conformer number 890. Energy MM = 23.287 kcal/mol

0 1
C  -0.7144    0.6146    0.1936
H  -0.8430    1.4854    -0.4603
H  -0.1221    0.9842    1.0415
C  -2.0546    0.1279    0.7051
C  -2.0131    -0.5599    2.0459
H  -3.0056    -0.8837    2.3768
H  -1.3743    -1.4476    2.0016
H  -1.6153    0.1181    2.8081
C  -3.2248    0.2971    0.0583
H  -4.1370    -0.0718    0.5266
C  -3.4437    0.9308    -1.2790
H  -4.0260    0.2536    -1.9122
H  -4.0106    1.8593    -1.1620
H  -2.5167    1.1562    -1.8109
C  2.8926    -0.9830    0.6920
H  3.5081    -0.3889    1.3763
H  3.4403    -1.8975    0.4424
H  1.9936    -1.2679    1.2432
C  2.6036    -0.1965    -0.5567
C  3.8272    0.3664    -1.2317
H  3.5809    0.9264    -2.1400
H  4.5087    -0.4425    -1.5150
H  4.3553    1.0462    -0.5550
C  1.3756    0.0260    -1.0646
H  1.2889    0.6291    -1.9687
C  0.0586    -0.4840    -0.5431
H  0.1952    -1.3580    0.1015
H  -0.5274    -0.8399    -1.4004

