%chk=01-IsoP_2527_gaussian.chk
%nproc=1
%mem=4000Mb
#p opt mp2/6-31g(d,p)

Conformer number 2527. Energy MM = 23.242 kcal/mol

0 1
C  0.2587    -0.6656    -1.0420
H  0.0253    0.3471    -1.3919
H  -0.3402    -1.3290    -1.6805
C  1.7271    -0.9753    -1.2487
C  2.0488    -2.4325    -1.4601
H  1.7427    -3.0222    -0.5903
H  1.5231    -2.8132    -2.3419
H  3.1196    -2.6029    -1.6142
C  2.7043    -0.0474    -1.2737
H  3.7285    -0.3736    -1.4524
C  2.5659    1.4267    -1.0587
H  2.7994    1.9607    -1.9847
H  1.5692    1.7272    -0.7282
H  3.2752    1.7509    -0.2903
C  -3.6752    0.7182    1.2631
H  -3.9420    0.8848    2.3119
H  -4.2010    -0.1812    0.9256
H  -4.0455    1.5615    0.6710
C  -2.1806    0.5954    1.1195
C  -1.4136    1.8046    1.5791
H  -1.8026    2.7043    1.0902
H  -1.5192    1.9280    2.6618
H  -0.3471    1.7561    1.3479
C  -1.6294    -0.5212    0.6047
H  -2.2906    -1.3278    0.2875
C  -0.1658    -0.8229    0.4215
H  0.4575    -0.1967    1.0683
H  0.0076    -1.8539    0.7551

