%chk=01-IsoP_3422_gaussian.chk
%nproc=1
%mem=4000Mb
#p opt mp2/6-31g(d,p)

Conformer number 3422. Energy MM = 23.242 kcal/mol

0 1
C  0.6178    -0.1200    -1.2678
H  -0.3784    -0.5479    -1.4321
H  0.7844    0.5433    -2.1272
C  1.6721    -1.2077    -1.2721
C  3.0408    -0.7686    -1.7254
H  3.7634    -1.5915    -1.7201
H  3.4287    0.0154    -1.0675
H  2.9945    -0.3757    -2.7464
C  1.4433    -2.4905    -0.9278
H  2.2672    -3.2012    -0.9873
C  0.1626    -3.0865    -0.4351
H  -0.2240    -3.7974    -1.1716
H  -0.6128    -2.3450    -0.2303
H  0.3483    -3.6293    0.4974
C  -2.5265    2.9677    0.5444
H  -2.0999    3.7732    -0.0625
H  -2.7291    3.3743    1.5406
H  -3.4775    2.6752    0.0872
C  -1.6075    1.7783    0.6447
C  -2.1473    0.6479    1.4769
H  -1.5342    -0.2551    1.4330
H  -2.2220    0.9548    2.5252
H  -3.1472    0.3685    1.1277
C  -0.4178    1.7741    0.0120
H  -0.1414    2.6468    -0.5797
C  0.6291    0.6922    0.0312
H  1.6058    1.1742    0.1653
H  0.5075    0.0306    0.8951

