%chk=01-IsoP_2787_gaussian.chk
%nproc=1
%mem=4000Mb
#p opt mp2/6-31g(d,p)

Conformer number 2787. Energy MM = 23.242 kcal/mol

0 1
C  0.4534    0.7062    0.8285
H  -0.5793    1.0283    0.6491
H  0.5313    0.6051    1.9194
C  1.4305    1.7646    0.3599
C  2.7417    1.7969    1.1025
H  3.4081    2.5839    0.7337
H  2.5700    1.9815    2.1680
H  3.2666    0.8426    0.9942
C  1.1800    2.6483    -0.6265
H  1.9435    3.3859    -0.8721
C  -0.0477    2.7400    -1.4765
H  -0.5784    3.6728    -1.2633
H  -0.7403    1.9077    -1.3332
H  0.2401    2.7457    -2.5328
C  -2.2073    -3.2413    0.6221
H  -1.8274    -3.5600    1.5986
H  -2.2382    -4.1233    -0.0260
H  -3.2302    -2.8782    0.7658
C  -1.3544    -2.1672    -0.0011
C  -1.8320    -1.7026    -1.3493
H  -1.2856    -0.8363    -1.7289
H  -2.8868    -1.4122    -1.2946
H  -1.7350    -2.5106    -2.0818
C  -0.2721    -1.6891    0.6435
H  -0.0345    -2.0915    1.6284
C  0.7015    -0.6485    0.1575
H  0.6688    -0.5455    -0.9321
H  1.7138    -1.0035    0.3889

