%chk=01-IsoP_1705_gaussian.chk
%nproc=1
%mem=4000Mb
#p opt mp2/6-31g(d,p)

Conformer number 1705. Energy MM = 23.287 kcal/mol

0 1
C  0.8042    -0.3091    0.5048
H  0.9123    0.1983    1.4709
H  0.3931    -1.2976    0.7505
C  2.1542    -0.4891    -0.1582
C  2.2586    -1.6789    -1.0780
H  2.0553    -2.6032    -0.5274
H  1.5368    -1.5950    -1.8966
H  3.2544    -1.7720    -1.5243
C  3.2179    0.3125    0.0478
H  4.1521    0.0800    -0.4627
C  3.2830    1.5390    0.9018
H  2.3100    1.8552    1.2844
H  3.6882    2.3701    0.3155
H  3.9497    1.3651    1.7517
C  -3.9082    0.3267    0.8348
H  -3.7553    1.1545    1.5352
H  -4.7021    0.6215    0.1407
H  -4.2528    -0.5376    1.4119
C  -2.6543    -0.0190    0.0746
C  -2.8173    -1.1456    -0.9080
H  -3.4848    -0.8422    -1.7211
H  -1.8746    -1.4753    -1.3506
H  -3.2551    -2.0178    -0.4104
C  -1.5065    0.6488    0.3032
H  -1.5056    1.4374    1.0559
C  -0.1800    0.4591    -0.3831
H  0.2248    1.4532    -0.6131
H  -0.2978    -0.0401    -1.3500

