%chk=01-IsoP_1867_gaussian.chk
%nproc=1
%mem=4000Mb
#p opt mp2/6-31g(d,p)

Conformer number 1867. Energy MM = 23.287 kcal/mol

0 1
C  0.5736    -0.2520    0.7766
H  1.2763    0.5234    1.1043
H  -0.2681    -0.1843    1.4791
C  1.2015    -1.6257    0.8927
C  0.2286    -2.7531    1.1272
H  -0.3301    -2.5856    2.0538
H  0.7304    -3.7226    1.2142
H  -0.4834    -2.8233    0.2989
C  2.5257    -1.8671    0.8242
H  2.8752    -2.8923    0.9438
C  3.6206    -0.8786    0.5755
H  4.2465    -0.7849    1.4681
H  3.2570    0.1144    0.3022
H  4.2510    -1.2323    -0.2468
C  -2.2366    3.1918    -0.9443
H  -2.8484    3.4888    -0.0861
H  -2.8261    3.3291    -1.8568
H  -1.3819    3.8745    -0.9953
C  -1.8124    1.7525    -0.8104
C  -2.9533    0.7748    -0.7459
H  -2.6382    -0.2449    -0.5127
H  -3.4855    0.7539    -1.7023
H  -3.6605    1.0737    0.0354
C  -0.5072    1.4244    -0.7462
H  0.2320    2.2247    -0.7847
C  0.0907    0.0463    -0.6464
H  -0.6139    -0.7206    -0.9833
H  0.9364    -0.0048    -1.3444

