%chk=01-IsoP_497_gaussian.chk
%nproc=1
%mem=4000Mb
#p opt mp2/6-31g(d,p)

Conformer number 497. Energy MM = 23.242 kcal/mol

0 1
C  0.8540    0.4315    0.6439
H  0.8545    1.1995    1.4291
H  0.9122    0.9916    -0.2970
C  2.0737    -0.4503    0.8153
C  2.4655    -0.7277    2.2440
H  3.3569    -1.3601    2.3144
H  1.6546    -1.2407    2.7706
H  2.6828    0.2095    2.7668
C  2.7995    -0.9516    -0.2038
H  3.6747    -1.5579    0.0282
C  2.5395    -0.7974    -1.6690
H  2.5345    -1.7839    -2.1439
H  1.5815    -0.3237    -1.8942
H  3.3359    -0.2032    -2.1271
C  -2.1750    0.0158    -1.8900
H  -1.2355    -0.5398    -1.9318
H  -2.9896    -0.6812    -2.1119
H  -2.1354    0.7647    -2.6884
C  -2.4148    0.6863    -0.5654
C  -3.6094    1.6040    -0.5427
H  -3.7579    2.0695    0.4373
H  -3.4853    2.4070    -1.2767
H  -4.5195    1.0462    -0.7867
C  -1.6513    0.5253    0.5330
H  -1.9137    1.0807    1.4336
C  -0.4511    -0.3692    0.6946
H  -0.5421    -0.8798    1.6617
H  -0.4390    -1.1651    -0.0572

