%chk=01-IsoP_3452_gaussian.chk
%nproc=1
%mem=4000Mb
#p opt mp2/6-31g(d,p)

Conformer number 3452. Energy MM = 23.242 kcal/mol

0 1
C  0.9017    0.7981    -0.1661
H  0.5976    0.8664    0.8853
H  0.9415    1.8385    -0.5157
C  2.2821    0.1852    -0.2825
C  3.0762    0.6240    -1.4860
H  4.0684    0.1616    -1.5194
H  2.5542    0.3521    -2.4088
H  3.2176    1.7097    -1.4722
C  2.8114    -0.6733    0.6116
H  3.8243    -1.0395    0.4463
C  2.1583    -1.2283    1.8379
H  2.2398    -2.3201    1.8316
H  1.0970    -0.9823    1.9157
H  2.6670    -0.8541    2.7314
C  -3.8600    0.9649    -0.1150
H  -4.6635    0.2925    -0.4331
H  -4.1002    1.3481    0.8821
H  -3.8472    1.8160    -0.8040
C  -2.5455    0.2294    -0.0893
C  -2.5173    -0.9548    0.8373
H  -2.8423    -0.6552    1.8396
H  -3.1957    -1.7333    0.4738
H  -1.5246    -1.3971    0.9467
C  -1.5099    0.6468    -0.8435
H  -1.6438    1.5327    -1.4645
C  -0.1477    0.0168    -0.9631
H  0.1218    0.0019    -2.0268
H  -0.1612    -1.0321    -0.6493

