%chk=01-IsoP_2821_gaussian.chk
%nproc=1
%mem=4000Mb
#p opt mp2/6-31g(d,p)

Conformer number 2821. Energy MM = 23.242 kcal/mol

0 1
C  0.9183    -0.6070    -0.3640
H  0.9795    -0.7345    0.7234
H  1.0167    -1.6219    -0.7723
C  2.0686    0.2408    -0.8666
C  2.5005    -0.0434    -2.2824
H  2.8168    -1.0870    -2.3805
H  3.3397    0.5873    -2.5946
H  1.6751    0.1376    -2.9780
C  2.7045    1.1739    -0.1306
H  3.5371    1.7143    -0.5803
C  2.3923    1.5972    1.2699
H  2.2855    2.6862    1.3061
H  3.2130    1.3133    1.9356
H  1.4668    1.1670    1.6592
C  -2.2456    0.5079    1.7609
H  -2.1811    0.1494    2.7941
H  -3.1234    1.1564    1.6757
H  -1.3572    1.1180    1.5828
C  -2.3700    -0.6570    0.8178
C  -3.4836    -1.6130    1.1575
H  -4.4462    -1.0912    1.1479
H  -3.5495    -2.4443    0.4477
H  -3.3278    -2.0387    2.1542
C  -1.5735    -0.8802    -0.2457
H  -1.7489    -1.7720    -0.8476
C  -0.4441    -0.0187    -0.7446
H  -0.5327    0.0501    -1.8362
H  -0.5307    1.0094    -0.3780

