%chk=01-IsoP_3975_gaussian.chk
%nproc=1
%mem=4000Mb
#p opt mp2/6-31g(d,p)

Conformer number 3975. Energy MM = 23.287 kcal/mol

0 1
C  0.8040    0.2142    0.5155
H  0.2544    0.1298    1.4627
H  1.1205    1.2630    0.4668
C  2.0069    -0.7054    0.5612
C  1.7800    -2.0161    1.2704
H  0.9899    -2.5885    0.7744
H  2.6797    -2.6404    1.2860
H  1.4824    -1.8391    2.3091
C  3.2151    -0.4068    0.0442
H  4.0216    -1.1316    0.1522
C  3.6059    0.8272    -0.7057
H  4.3299    1.4033    -0.1217
H  4.0791    0.5443    -1.6516
H  2.7610    1.4762    -0.9465
C  -3.0553    -0.7118    0.2720
H  -3.5787    -0.5188    1.2148
H  -2.2498    -1.4145    0.4968
H  -3.7521    -1.2043    -0.4139
C  -2.5711    0.5815    -0.3233
C  -3.6383    1.6351    -0.4679
H  -4.4453    1.2701    -1.1117
H  -3.2529    2.5597    -0.9103
H  -4.0596    1.8856    0.5112
C  -1.3023    0.8330    -0.7004
H  -1.0658    1.8179    -1.1035
C  -0.1270    -0.1070    -0.6581
H  -0.4516    -1.1515    -0.6182
H  0.4193    -0.0050    -1.6047

