%chk=01-IsoP_2636_gaussian.chk
%nproc=1
%mem=4000Mb
#p opt mp2/6-31g(d,p)

Conformer number 2636. Energy MM = 23.242 kcal/mol

0 1
C  -0.7399    -0.2012    0.9277
H  -0.6013    -0.1858    2.0172
H  -0.8483    0.8523    0.6434
C  -2.0016    -0.9735    0.6015
C  -2.2684    -2.1639    1.4866
H  -3.1950    -2.6818    1.2171
H  -2.3580    -1.8478    2.5310
H  -1.4514    -2.8883    1.4105
C  -2.8630    -0.6436    -0.3811
H  -3.7554    -1.2537    -0.5188
C  -2.7403    0.4811    -1.3600
H  -2.8603    0.0936    -2.3770
H  -3.5296    1.2173    -1.1809
H  -1.7756    0.9915    -1.3187
C  1.9773    1.2817    -1.5595
H  2.7085    0.9398    -2.2992
H  1.9165    2.3740    -1.6147
H  0.9977    0.8962    -1.8508
C  2.4008    0.8578    -0.1801
C  3.6598    1.5221    0.3131
H  4.4943    1.2974    -0.3593
H  3.5259    2.6081    0.3519
H  3.9420    1.1859    1.3164
C  1.7412    -0.0254    0.5947
H  2.1354    -0.2403    1.5881
C  0.4969    -0.7999    0.2503
H  0.3471    -0.8586    -0.8327
H  0.6443    -1.8351    0.5832

