%chk=01-IsoP_2967_gaussian.chk
%nproc=1
%mem=4000Mb
#p opt mp2/6-31g(d,p)

Conformer number 2967. Energy MM = 23.287 kcal/mol

0 1
C  -0.6623    0.3675    -0.6199
H  -0.7273    1.4621    -0.6340
H  -0.0369    0.1115    -1.4857
C  -2.0327    -0.2515    -0.8030
C  -2.0353    -1.6131    -1.4500
H  -1.5803    -1.5615    -2.4446
H  -3.0476    -2.0134    -1.5698
H  -1.4681    -2.3265    -0.8440
C  -3.1908    0.3428    -0.4536
H  -4.1256    -0.1814    -0.6509
C  -3.3692    1.6695    0.2139
H  -3.8612    2.3669    -0.4708
H  -2.4313    2.1178    0.5494
H  -4.0072    1.5509    1.0957
C  2.8126    -1.4089    0.1420
H  3.2854    -2.0136    0.9226
H  3.4774    -1.3890    -0.7283
H  1.8981    -1.9176    -0.1713
C  2.5768    -0.0107    0.6430
C  3.8357    0.7747    0.9038
H  4.4499    0.2665    1.6543
H  4.4200    0.8721    -0.0171
H  3.6273    1.7842    1.2736
C  1.3662    0.5447    0.8467
H  1.3203    1.5765    1.1957
C  0.0173    -0.1003    0.6710
H  -0.6009    0.1720    1.5364
H  0.0899    -1.1921    0.6949

