%chk=01-IsoP_536_gaussian.chk
%nproc=1
%mem=4000Mb
#p opt mp2/6-31g(d,p)

Conformer number 536. Energy MM = 23.242 kcal/mol

0 1
C  -0.9738    -0.7767    0.1605
H  -0.6484    -0.9046    -0.8789
H  -1.1187    -1.7980    0.5377
C  -2.2947    -0.0373    0.2179
C  -3.1586    -0.3649    1.4087
H  -2.6395    -0.1136    2.3389
H  -3.3989    -1.4330    1.4210
H  -4.1046    0.1868    1.3992
C  -2.7179    0.8381    -0.7154
H  -3.6970    1.3000    -0.5911
C  -1.9830    1.2935    -1.9364
H  -1.9638    2.3878    -1.9631
H  -2.4992    0.9401    -2.8341
H  -0.9471    0.9495    -1.9752
C  2.6182    0.6256    -0.7878
H  3.3551    1.3498    -0.4258
H  1.6738    1.1530    -0.9394
H  2.9417    0.2671    -1.7710
C  2.5119    -0.5273    0.1721
C  3.7519    -1.3784    0.2581
H  3.9832    -1.8122    -0.7203
H  3.6419    -2.2033    0.9698
H  4.6048    -0.7726    0.5813
C  1.4219    -0.8253    0.9060
H  1.4565    -1.7003    1.5553
C  0.1207    -0.0703    0.9667
H  -0.1755    0.0016    2.0209
H  0.2392    0.9629    0.6243

