%chk=01-IsoP_2655_gaussian.chk
%nproc=1
%mem=4000Mb
#p opt mp2/6-31g(d,p)

Conformer number 2655. Energy MM = 23.242 kcal/mol

0 1
C  -0.7839    -0.7569    0.5110
H  -0.6662    -1.6616    1.1226
H  -0.6275    -1.0931    -0.5210
C  -2.1891    -0.2201    0.6892
C  -2.7540    -0.3583    2.0797
H  -2.7836    -1.4124    2.3743
H  -2.1364    0.1876    2.7998
H  -3.7735    0.0348    2.1543
C  -2.9259    0.3261    -0.2984
H  -3.9371    0.6619    -0.0698
C  -2.5151    0.5611    -1.7176
H  -2.7065    1.6056    -1.9841
H  -1.4561    0.3677    -1.9025
H  -3.1049    -0.0742    -2.3852
C  3.9135    -0.6439    -0.2803
H  4.0471    -1.2711    -1.1678
H  4.0867    -1.2721    0.5998
H  4.6808    0.1372    -0.2867
C  2.5403    -0.0244    -0.2802
C  2.2586    0.8555    -1.4668
H  2.4663    0.3122    -2.3951
H  1.2203    1.1901    -1.5227
H  2.8984    1.7434    -1.4371
C  1.6713    -0.2802    0.7173
H  1.9827    -0.9516    1.5176
C  0.2827    0.2751    0.8910
H  0.1434    1.1962    0.3156
H  0.1677    0.5654    1.9430

