%chk=01-IsoP_2414_gaussian.chk
%nproc=1
%mem=4000Mb
#p opt mp2/6-31g(d,p)

Conformer number 2414. Energy MM = 23.242 kcal/mol

0 1
C  -0.6341    -0.0654    1.0946
H  -0.3190    0.9775    0.9697
H  -0.3685    -0.3176    2.1301
C  -2.1340    -0.1926    0.9250
C  -2.7695    -1.3251    1.6900
H  -2.3539    -2.2851    1.3680
H  -2.5863    -1.2081    2.7631
H  -3.8538    -1.3685    1.5424
C  -2.8881    0.6363    0.1761
H  -3.9645    0.4711    0.1387
C  -2.4214    1.7854    -0.6606
H  -2.7944    2.7252    -0.2423
H  -1.3343    1.8511    -0.7434
H  -2.8195    1.6826    -1.6753
C  2.1247    0.6640    -1.6668
H  2.5273    1.6784    -1.5730
H  2.5435    0.2095    -2.5705
H  1.0464    0.7646    -1.8090
C  2.4951    -0.1516    -0.4588
C  3.9674    -0.1526    -0.1395
H  4.3135    0.8670    0.0590
H  4.5370    -0.5561    -0.9830
H  4.2019    -0.7605    0.7407
C  1.6243    -0.8310    0.3130
H  2.0095    -1.3729    1.1770
C  0.1368    -0.9635    0.1220
H  -0.1296    -2.0149    0.2889
H  -0.1566    -0.7470    -0.9104

