%chk=01-IsoP_1572_gaussian.chk
%nproc=1
%mem=4000Mb
#p opt mp2/6-31g(d,p)

Conformer number 1572. Energy MM = 23.287 kcal/mol

0 1
C  -0.7026    -0.3744    -0.6024
H  -0.5857    -0.1760    -1.6745
H  -0.3154    -1.3924    -0.4607
C  -2.1655    -0.3456    -0.2102
C  -2.5250    -1.2088    0.9723
H  -3.5930    -1.1624    1.2102
H  -1.9746    -0.8880    1.8623
H  -2.2769    -2.2554    0.7675
C  -3.1141    0.3619    -0.8550
H  -4.1435    0.2940    -0.5040
C  -2.9310    1.2801    -2.0217
H  -1.8836    1.4658    -2.2695
H  -3.4272    0.8639    -2.9037
H  -3.3895    2.2489    -1.7985
C  4.0134    0.1213    -0.1193
H  4.4087    -0.8763    -0.3369
H  4.0548    0.7045    -1.0453
H  4.6723    0.6064    0.6083
C  2.6148    0.0202    0.4316
C  2.5087    -0.7647    1.7099
H  2.9789    -1.7465    1.5880
H  3.0210    -0.2357    2.5199
H  1.4781    -0.9455    2.0238
C  1.5798    0.5935    -0.2130
H  1.7776    1.1234    -1.1450
C  0.1347    0.6198    0.2086
H  -0.2428    1.6386    0.0519
H  0.0276    0.4294    1.2811

