%chk=01-IsoP_493_gaussian.chk
%nproc=1
%mem=4000Mb
#p opt mp2/6-31g(d,p)

Conformer number 493. Energy MM = 23.242 kcal/mol

0 1
C  0.1419    -0.1781    -1.1937
H  1.0159    -0.3335    -1.8404
H  -0.1322    -1.1813    -0.8459
C  -0.9787    0.4255    -2.0151
C  -0.5399    1.4138    -3.0651
H  0.1434    0.9355    -3.7745
H  -0.0246    2.2610    -2.6019
H  -1.3840    1.8134    -3.6372
C  -2.2819    0.1141    -1.8695
H  -3.0083    0.5895    -2.5280
C  -2.8889    -0.8187    -0.8696
H  -2.1808    -1.1711    -0.1164
H  -3.3113    -1.6885    -1.3816
H  -3.6998    -0.3079    -0.3403
C  0.2800    -0.8269    2.7214
H  0.2636    -0.2678    3.6625
H  -0.6162    -0.5616    2.1562
H  0.2028    -1.8946    2.9538
C  1.5586    -0.5518    1.9789
C  2.7958    -1.0753    2.6606
H  3.7076    -0.8521    2.0966
H  2.9005    -0.6243    3.6529
H  2.7345    -2.1623    2.7764
C  1.6448    0.0910    0.7979
H  2.6285    0.2150    0.3449
C  0.5234    0.7022    0.0006
H  0.8595    1.6865    -0.3494
H  -0.3542    0.8973    0.6257

