%chk=01-IsoP_523_gaussian.chk
%nproc=1
%mem=4000Mb
#p opt mp2/6-31g(d,p)

Conformer number 523. Energy MM = 23.287 kcal/mol

0 1
C  -0.6815    0.5789    0.3981
H  -0.0511    1.4672    0.2565
H  -0.7935    0.4841    1.4847
C  -2.0251    0.8198    -0.2587
C  -1.9734    1.5988    -1.5482
H  -1.3721    1.0678    -2.2929
H  -2.9683    1.7556    -1.9783
H  -1.5274    2.5842    -1.3786
C  -3.2054    0.4106    0.2472
H  -4.1181    0.6571    -0.2948
C  -3.4364    -0.3858    1.4923
H  -2.5165    -0.7621    1.9454
H  -4.0630    -1.2528    1.2593
H  -3.9622    0.2253    2.2321
C  3.8045    -0.9682    0.8470
H  4.4448    -1.6633    0.2940
H  4.3782    -0.0604    1.0605
H  3.5553    -1.4368    1.8049
C  2.5789    -0.6334    0.0374
C  2.8714    0.0045    -1.2927
H  3.5292    0.8700    -1.1577
H  1.9776    0.3649    -1.8070
H  3.3747    -0.7112    -1.9507
C  1.3470    -0.8938    0.5169
H  1.2590    -1.3435    1.5061
C  0.0259    -0.6577    -0.1654
H  0.1455    -0.5729    -1.2501
H  -0.5979    -1.5471    -0.0074

