%chk=01-IsoP_1413_gaussian.chk
%nproc=1
%mem=4000Mb
#p opt mp2/6-31g(d,p)

Conformer number 1413. Energy MM = 23.287 kcal/mol

0 1
C  0.7248    -0.6501    0.0083
H  0.9494    -1.2372    0.9068
H  0.0913    -1.3051    -0.6049
C  1.9943    -0.3373    -0.7567
C  1.8147    -0.1575    -2.2426
H  1.3980    -1.0672    -2.6873
H  1.1337    0.6743    -2.4485
H  2.7604    0.0564    -2.7518
C  3.2173    -0.2428    -0.1985
H  4.0703    -0.0361    -0.8444
C  3.5703    -0.3686    1.2498
H  4.1764    -1.2656    1.4080
H  4.1610    0.5003    1.5576
H  2.6996    -0.4190    1.9073
C  -3.7034    -0.0374    1.6621
H  -3.3594    -0.2419    2.6814
H  -4.4046    0.8022    1.7106
H  -4.2432    -0.9224    1.3096
C  -2.5665    0.2874    0.7285
C  -2.9910    0.5854    -0.6831
H  -2.1528    0.6842    -1.3766
H  -3.6230    -0.2241    -1.0642
H  -3.5672    1.5158    -0.7143
C  -1.2935    0.2852    1.1699
H  -1.1063    0.0349    2.2143
C  -0.0491    0.6159    0.3896
H  0.5796    1.2612    1.0169
H  -0.2812    1.2090    -0.5006

