%chk=01-IsoP_2927_gaussian.chk
%nproc=1
%mem=4000Mb
#p opt mp2/6-31g(d,p)

Conformer number 2927. Energy MM = 23.242 kcal/mol

0 1
C  0.9279    0.7665    0.0040
H  0.6546    0.5868    -1.0426
H  1.0006    1.8588    0.0923
C  2.2788    0.1553    0.3143
C  3.0580    0.8475    1.4030
H  4.0294    0.3747    1.5826
H  3.2437    1.8918    1.1316
H  2.5013    0.8259    2.3451
C  2.7962    -0.9121    -0.3258
H  3.7886    -1.2602    -0.0409
C  2.1537    -1.7271    -1.4033
H  1.1056    -1.4726    -1.5760
H  2.7005    -1.5987    -2.3423
H  2.1905    -2.7866    -1.1298
C  -3.8201    1.0727    -0.2546
H  -4.0182    1.2093    -1.3228
H  -4.6583    0.5248    0.1882
H  -3.7909    2.0651    0.2075
C  -2.5363    0.3102    -0.0547
C  -2.5317    -1.0642    -0.6652
H  -1.5553    -1.5523    -0.6289
H  -3.2506    -1.7080    -0.1481
H  -2.8178    -1.0072    -1.7211
C  -1.5049    0.8643    0.6120
H  -1.6190    1.8787    0.9947
C  -0.1730    0.2379    0.9289
H  -0.2207    -0.8549    0.8784
H  0.0675    0.4735    1.9734

