%chk=01-IsoP_3829_gaussian.chk
%nproc=1
%mem=4000Mb
#p opt mp2/6-31g(d,p)

Conformer number 3829. Energy MM = 23.242 kcal/mol

0 1
C  -0.7267    0.9108    0.3014
H  -0.5666    0.9629    -0.7821
H  -0.5429    1.9317    0.6624
C  -2.1595    0.5286    0.6105
C  -2.6918    1.0517    1.9200
H  -3.7324    0.7570    2.0922
H  -2.0976    0.6681    2.7553
H  -2.6509    2.1457    1.9364
C  -2.9451    -0.2021    -0.2054
H  -3.9713    -0.4029    0.1012
C  -2.5730    -0.8160    -1.5180
H  -2.8335    -1.8793    -1.5097
H  -3.1330    -0.3346    -2.3254
H  -1.5073    -0.7445    -1.7461
C  2.1765    -1.3439    -1.2007
H  2.4023    -1.0689    -2.2367
H  2.7601    -2.2344    -0.9458
H  1.1186    -1.6140    -1.1695
C  2.5319    -0.2113    -0.2773
C  3.9409    0.2981    -0.4351
H  4.1673    1.1168    0.2560
H  4.0986    0.6692    -1.4531
H  4.6578    -0.5068    -0.2425
C  1.6971    0.3450    0.6222
H  2.0628    1.1763    1.2252
C  0.2796    -0.0572    0.9316
H  0.1640    -0.0627    2.0229
H  0.0738    -1.0834    0.6099

