%chk=01-IsoP_3244_gaussian.chk
%nproc=1
%mem=4000Mb
#p opt mp2/6-31g(d,p)

Conformer number 3244. Energy MM = 23.242 kcal/mol

0 1
C  -0.7617    0.2327    -0.8085
H  -0.6150    1.1668    -0.2531
H  -0.6178    0.5064    -1.8625
C  -2.1738    -0.2825    -0.6208
C  -2.7145    -1.0963    -1.7684
H  -2.7200    -0.5003    -2.6869
H  -2.0961    -1.9843    -1.9327
H  -3.7398    -1.4366    -1.5888
C  -2.9357    -0.0363    0.4634
H  -3.9493    -0.4355    0.4898
C  -2.5512    0.7245    1.6928
H  -1.4918    0.9879    1.7288
H  -3.1393    1.6448    1.7594
H  -2.7661    0.1181    2.5786
C  3.9200    0.6536    -0.0283
H  4.1184    0.5421    -1.0995
H  4.0515    1.7105    0.2258
H  4.6725    0.0691    0.5112
C  2.5357    0.1941    0.3484
C  2.2194    0.3199    1.8133
H  1.1743    0.1098    2.0516
H  2.8430    -0.3682    2.3932
H  2.4228    1.3405    2.1552
C  1.6871    -0.2705    -0.5895
H  2.0232    -0.2974    -1.6261
C  0.2913    -0.7966    -0.3858
H  0.1870    -1.7097    -0.9855
H  0.1260    -1.1065    0.6513

