%chk=01-IsoP_3918_gaussian.chk
%nproc=1
%mem=4000Mb
#p opt mp2/6-31g(d,p)

Conformer number 3918. Energy MM = 23.242 kcal/mol

0 1
C  -0.7901    -0.5904    -0.6897
H  -0.7986    0.4597    -1.0054
H  -0.6938    -1.1637    -1.6216
C  -2.0982    -0.9554    -0.0186
C  -2.4985    -2.4030    -0.1448
H  -3.4539    -2.6137    0.3474
H  -1.7427    -3.0503    0.3110
H  -2.6024    -2.6775    -1.1997
C  -2.8896    -0.0801    0.6325
H  -3.8238    -0.4413    1.0618
C  -2.6346    1.3746    0.8716
H  -2.7464    1.5935    1.9385
H  -1.6329    1.6955    0.5775
H  -3.3660    1.9751    0.3224
C  3.7592    0.7851    -1.0298
H  4.5978    0.8725    -0.3312
H  3.7154    1.6950    -1.6374
H  3.9725    -0.0531    -1.7015
C  2.4694    0.5991    -0.2739
C  2.1377    1.7225    0.6693
H  2.1708    2.6804    0.1389
H  2.8662    1.7558    1.4858
H  1.1415    1.6401    1.1096
C  1.7082    -0.4947    -0.4729
H  2.0435    -1.2355    -1.1989
C  0.4179    -0.8536    0.2149
H  0.4649    -1.9174    0.4802
H  0.3065    -0.3193    1.1641

