%chk=01-IsoP_3577_gaussian.chk
%nproc=1
%mem=4000Mb
#p opt mp2/6-31g(d,p)

Conformer number 3577. Energy MM = 23.242 kcal/mol

0 1
C  0.8155    -0.1542    1.0149
H  0.7404    -0.4361    2.0737
H  0.7383    -1.1003    0.4659
C  2.1626    0.4946    0.7713
C  2.6666    1.3616    1.8964
H  1.9720    2.1863    2.0847
H  3.6463    1.7988    1.6763
H  2.7659    0.7728    2.8141
C  2.9016    0.3188    -0.3421
H  3.8699    0.8141    -0.4087
C  2.5446    -0.4807    -1.5551
H  1.5151    -0.8456    -1.5491
H  3.2160    -1.3400    -1.6447
H  2.6647    0.1400    -2.4489
C  -2.2439    -0.5403    -1.4870
H  -2.9535    0.0817    -2.0421
H  -1.2342    -0.2311    -1.7665
H  -2.3607    -1.5773    -1.8203
C  -2.5130    -0.4397    -0.0108
C  -3.8304    -1.0295    0.4205
H  -3.9963    -0.9333    1.4987
H  -3.8688    -2.0952    0.1721
H  -4.6566    -0.5228    -0.0891
C  -1.6772    0.1087    0.8926
H  -1.9733    0.1072    1.9418
C  -0.3480    0.7667    0.6337
H  -0.2544    1.0868    -0.4092
H  -0.3093    1.6880    1.2286

