%chk=01-IsoP_1622_gaussian.chk
%nproc=1
%mem=4000Mb
#p opt mp2/6-31g(d,p)

Conformer number 1622. Energy MM = 23.287 kcal/mol

0 1
C  0.7456    0.1553    -0.6182
H  0.1693    -0.2433    -1.4640
H  0.9264    1.2067    -0.8720
C  2.0535    -0.6017    -0.5142
C  1.9655    -2.0723    -0.8337
H  2.9365    -2.5728    -0.7547
H  1.6010    -2.2174    -1.8559
H  1.2789    -2.5738    -0.1445
C  3.2354    -0.0410    -0.1898
H  4.1228    -0.6731    -0.1660
C  3.4975    1.3856    0.1762
H  2.5879    1.9767    0.3030
H  4.1142    1.8594    -0.5934
H  4.0455    1.4240    1.1232
C  -2.9474    -1.0962    0.1607
H  -2.0690    -1.7388    0.0665
H  -3.5432    -1.4594    1.0043
H  -3.5334    -1.2254    -0.7558
C  -2.6074    0.3557    0.3552
C  -3.7936    1.2827    0.3003
H  -4.2875    1.2101    -0.6742
H  -3.5109    2.3297    0.4525
H  -4.5170    1.0177    1.0784
C  -1.3657    0.8402    0.5526
H  -1.2400    1.9175    0.6627
C  -0.0823    0.0616    0.6674
H  -0.2712    -0.9842    0.9292
H  0.4886    0.4764    1.5083

