%chk=01-IsoP_801_gaussian.chk
%nproc=1
%mem=4000Mb
#p opt mp2/6-31g(d,p)

Conformer number 801. Energy MM = 23.287 kcal/mol

0 1
C  -0.7397    -0.1343    0.5108
H  -0.1433    -0.1302    1.4331
H  -0.9383    -1.1937    0.3092
C  -2.0333    0.6141    0.7586
C  -1.9106    1.8180    1.6575
H  -2.8721    2.3183    1.8142
H  -1.2238    2.5516    1.2239
H  -1.5285    1.5208    2.6396
C  -3.2309    0.2537    0.2563
H  -4.1054    0.8498    0.5161
C  -3.5274    -0.8886    -0.6629
H  -4.0896    -0.5233    -1.5284
H  -2.6319    -1.3851    -1.0432
H  -4.1425    -1.6314    -0.1462
C  3.7618    -0.8358    -0.8904
H  4.4792    -0.2808    -1.5037
H  4.2710    -1.1807    0.0155
H  3.4556    -1.7214    -1.4572
C  2.5941    0.0452    -0.5300
C  2.9666    1.2808    0.2421
H  3.5575    1.9540    -0.3873
H  2.1030    1.8373    0.6133
H  3.5681    1.0103    1.1166
C  1.3401    -0.2978    -0.8838
H  1.1908    -1.2304    -1.4283
C  0.0714    0.4744    -0.6375
H  -0.5199    0.4535    -1.5622
H  0.2778    1.5320    -0.4457

