%chk=01-IsoP_3119_gaussian.chk
%nproc=1
%mem=4000Mb
#p opt mp2/6-31g(d,p)

Conformer number 3119. Energy MM = 23.287 kcal/mol

0 1
C  0.5889    0.0633    -0.9026
H  0.6908    1.0694    -1.3266
H  -0.1526    -0.4370    -1.5400
C  1.9007    -0.6890    -0.9908
C  1.7704    -2.1878    -1.0858
H  1.1922    -2.4629    -1.9740
H  1.2615    -2.5850    -0.2020
H  2.7435    -2.6850    -1.1577
C  3.1150    -0.1046    -1.0123
H  3.9968    -0.7386    -1.1017
C  3.4261    1.3547    -0.9050
H  4.1686    1.5119    -0.1159
H  2.5565    1.9684    -0.6597
H  3.8496    1.7147    -1.8474
C  -3.6554    1.3575    0.8382
H  -4.1847    1.2069    1.7848
H  -3.3646    2.4120    0.7846
H  -4.3505    1.1622    0.0152
C  -2.4701    0.4317    0.7518
C  -2.8190    -1.0290    0.8307
H  -3.2077    -1.2698    1.8254
H  -1.9718    -1.6889    0.6307
H  -3.5902    -1.2715    0.0915
C  -1.2242    0.9231    0.6044
H  -1.0963    2.0038    0.5408
C  0.0665    0.1511    0.5350
H  0.8013    0.6669    1.1667
H  -0.0416    -0.8484    0.9678

