%chk=01-IsoP_845_gaussian.chk
%nproc=1
%mem=4000Mb
#p opt mp2/6-31g(d,p)

Conformer number 845. Energy MM = 23.287 kcal/mol

0 1
C  0.8221    -0.4835    0.0929
H  0.3602    -1.4456    -0.1668
H  1.0438    -0.5583    1.1642
C  2.0982    -0.3190    -0.7066
C  2.0413    -0.8545    -2.1146
H  1.2648    -0.3398    -2.6893
H  2.9889    -0.7218    -2.6474
H  1.8150    -1.9257    -2.1044
C  3.2310    0.2339    -0.2296
H  4.1020    0.2827    -0.8826
C  3.4538    0.8315    1.1236
H  4.1715    0.2249    1.6841
H  2.5403    0.9217    1.7155
H  3.8711    1.8377    1.0133
C  -2.9520    -0.3810    -1.1548
H  -3.4117    -1.3752    -1.1376
H  -3.6579    0.3167    -1.6169
H  -2.0743    -0.4507    -1.8014
C  -2.6288    0.0621    0.2454
C  -3.7895    -0.0139    1.2029
H  -4.1498    -1.0449    1.2817
H  -4.6122    0.6170    0.8508
H  -3.5209    0.3222    2.2099
C  -1.4206    0.4874    0.6633
H  -1.3017    0.7661    1.7106
C  -0.1704    0.6562    -0.1584
H  -0.4012    0.7386    -1.2251
H  0.2868    1.6151    0.1182

