%chk=01-IsoP_518_gaussian.chk
%nproc=1
%mem=4000Mb
#p opt mp2/6-31g(d,p)

Conformer number 518. Energy MM = 23.242 kcal/mol

0 1
C  0.8404    0.3423    0.9057
H  0.5417    -0.6803    1.1656
H  0.8003    0.8965    1.8531
C  2.2610    0.3650    0.3803
C  3.0096    1.6512    0.6190
H  3.0709    1.8612    1.6918
H  2.5006    2.4870    0.1287
H  4.0327    1.6139    0.2302
C  2.8601    -0.6717    -0.2385
H  3.8957    -0.5599    -0.5587
C  2.2609    -2.0003    -0.5760
H  2.7489    -2.7869    0.0073
H  1.1851    -2.0520    -0.3944
H  2.4224    -2.2136    -1.6377
C  -2.4311    -1.0773    -0.8409
H  -1.4076    -1.2503    -1.1809
H  -3.0538    -0.8955    -1.7229
H  -2.7680    -2.0055    -0.3668
C  -2.5548    0.0693    0.1243
C  -3.9200    0.2121    0.7451
H  -3.9762    1.0594    1.4366
H  -4.6748    0.3678    -0.0327
H  -4.1787    -0.6921    1.3058
C  -1.5597    0.9170    0.4507
H  -1.7640    1.7013    1.1797
C  -0.1561    0.9390    -0.0933
H  -0.0894    0.4187    -1.0545
H  0.1041    1.9837    -0.3060

