%chk=01-IsoP_2976_gaussian.chk
%nproc=1
%mem=4000Mb
#p opt mp2/6-31g(d,p)

Conformer number 2976. Energy MM = 23.287 kcal/mol

0 1
C  0.7663    0.6049    -0.2418
H  0.3331    1.0986    0.6385
H  0.8114    1.3872    -1.0089
C  2.1573    0.1148    0.1040
C  2.3167    -0.4110    1.5077
H  2.0704    0.3691    2.2355
H  3.3401    -0.7431    1.7125
H  1.6531    -1.2653    1.6746
C  3.2095    0.1505    -0.7375
H  4.1749    -0.2066    -0.3799
C  3.2238    0.6143    -2.1596
H  3.6734    -0.1593    -2.7907
H  3.8299    1.5209    -2.2487
H  2.2291    0.8224    -2.5598
C  -3.9535    0.4187    -0.8811
H  -4.3422    1.1972    -0.2165
H  -4.6962    -0.3827    -0.9511
H  -3.8436    0.8576    -1.8784
C  -2.6528    -0.1224    -0.3472
C  -2.7555    -0.7446    1.0180
H  -3.2317    -0.0459    1.7145
H  -1.7869    -1.0081    1.4488
H  -3.3639    -1.6536    0.9725
C  -1.5191    -0.0207    -1.0683
H  -1.5646    0.4691    -2.0412
C  -0.1501    -0.5317    -0.7061
H  -0.2047    -1.3178    0.0535
H  0.2758    -1.0125    -1.5964

