%chk=01-IsoP_1831_gaussian.chk
%nproc=1
%mem=4000Mb
#p opt mp2/6-31g(d,p)

Conformer number 1831. Energy MM = 23.242 kcal/mol

0 1
C  -0.8644    0.2625    0.7952
H  -0.8665    1.0525    0.0347
H  -0.8663    0.7961    1.7552
C  -2.1214    -0.5769    0.6947
C  -2.5767    -1.2023    1.9882
H  -3.4928    -1.7898    1.8650
H  -1.8057    -1.8720    2.3818
H  -2.7790    -0.4268    2.7342
C  -2.8262    -0.7589    -0.4397
H  -3.7312    -1.3644    -0.3997
C  -2.5056    -0.2366    -1.8045
H  -3.2618    0.4927    -2.1102
H  -2.5189    -1.0626    -2.5230
H  -1.5230    0.2356    -1.8707
C  3.6806    1.5019    0.0803
H  3.6139    2.4744    -0.4182
H  3.8091    1.6859    1.1522
H  4.5781    0.9872    -0.2781
C  2.4548    0.6778    -0.2161
C  2.2406    0.3910    -1.6768
H  1.2835    -0.0908    -1.8890
H  2.2587    1.3246    -2.2495
H  3.0368    -0.2593    -2.0532
C  1.6450    0.2682    0.7799
H  1.8935    0.5546    1.8020
C  0.4075    -0.5817    0.6671
H  0.3945    -1.1504    -0.2685
H  0.4431    -1.3324    1.4668

