%chk=01-IsoP_3231_gaussian.chk
%nproc=1
%mem=4000Mb
#p opt mp2/6-31g(d,p)

Conformer number 3231. Energy MM = 23.287 kcal/mol

0 1
C  -0.6793    0.8058    0.0726
H  -0.7872    1.2455    1.0713
H  -0.0485    1.5148    -0.4804
C  -2.0252    0.7050    -0.6152
C  -1.9775    0.7678    -2.1206
H  -2.9739    0.7014    -2.5702
H  -1.5298    1.7122    -2.4470
H  -1.3798    -0.0575    -2.5199
C  -3.2040    0.5929    0.0285
H  -4.1184    0.5509    -0.5627
C  -3.4310    0.4939    1.5038
H  -3.9533    1.3869    1.8601
H  -4.0595    -0.3765    1.7181
H  -2.5099    0.3792    2.0793
C  2.8664    -0.5210    -1.1438
H  3.3663    -1.4663    -1.3780
H  3.5256    0.3009    -1.4435
H  1.9710    -0.4498    -1.7654
C  2.5783    -0.4399    0.3300
C  3.8067    -0.3477    1.1974
H  4.3822    0.5493    0.9464
H  4.4440    -1.2249    1.0449
H  3.5606    -0.2973    2.2633
C  1.3479    -0.4342    0.8791
H  1.2633    -0.3526    1.9630
C  0.0245    -0.5515    0.1711
H  -0.5997    -1.2535    0.7391
H  0.1400    -0.9990    -0.8210

