%chk=01-IsoP_1555_gaussian.chk
%nproc=1
%mem=4000Mb
#p opt mp2/6-31g(d,p)

Conformer number 1555. Energy MM = 23.242 kcal/mol

0 1
C  -0.9658    0.1125    0.8892
H  -1.0932    0.3463    1.9548
H  -0.6981    -0.9506    0.8648
C  -2.2792    0.3476    0.1720
C  -3.0779    1.5242    0.6714
H  -2.5079    2.4512    0.5541
H  -4.0212    1.6457    0.1285
H  -3.3205    1.3958    1.7313
C  -2.7500    -0.4256    -0.8265
H  -3.7193    -0.1830    -1.2612
C  -2.0814    -1.6067    -1.4562
H  -2.6469    -2.5164    -1.2331
H  -2.0602    -1.4767    -2.5431
H  -1.0502    -1.7509    -1.1262
C  3.7563    -0.1351    1.4765
H  3.6826    0.4556    2.3957
H  4.6275    0.2250    0.9195
H  3.9325    -1.1768    1.7640
C  2.5161    -0.0300    0.6277
C  2.5736    -0.8184    -0.6517
H  2.8418    -1.8591    -0.4399
H  1.6240    -0.8409    -1.1910
H  3.3315    -0.3967    -1.3198
C  1.4669    0.7117    1.0333
H  1.5341    1.2255    1.9924
C  0.1733    0.9512    0.3010
H  -0.0646    2.0193    0.3828
H  0.2763    0.7550    -0.7712

