%chk=01-IsoP_2203_gaussian.chk
%nproc=1
%mem=4000Mb
#p opt mp2/6-31g(d,p)

Conformer number 2203. Energy MM = 23.287 kcal/mol

0 1
C  -0.6744    -0.4865    0.5163
H  -0.7260    -0.2205    1.5789
H  -0.0761    -1.4071    0.4853
C  -2.0569    -0.7800    -0.0288
C  -2.0943    -1.7509    -1.1814
H  -1.5196    -1.3627    -2.0282
H  -3.1144    -1.9383    -1.5330
H  -1.6660    -2.7128    -0.8813
C  -3.1975    -0.2571    0.4633
H  -4.1438    -0.5532    0.0113
C  -3.3409    0.7302    1.5779
H  -2.3887    1.1404    1.9214
H  -3.8426    0.2597    2.4288
H  -3.9560    1.5716    1.2426
C  2.7975    -0.3034    -1.4134
H  3.4385    -1.1596    -1.1765
H  1.8685    -0.7083    -1.8210
H  3.2839    0.2839    -2.1989
C  2.5931    0.5427    -0.1870
C  3.8683    0.9567    0.4999
H  4.4965    1.5352    -0.1855
H  4.4284    0.0738    0.8249
H  3.6828    1.5765    1.3835
C  1.3956    0.9164    0.3048
H  1.3722    1.5168    1.2144
C  0.0343    0.6228    -0.2675
H  0.0940    0.3668    -1.3299
H  -0.5565    1.5468    -0.2207

