%chk=01-IsoP_096_gaussian.chk
%nproc=1
%mem=4000Mb
#p opt mp2/6-31g(d,p)

Conformer number 096. Energy MM = 23.242 kcal/mol

0 1
C  0.5902    -1.0198    -0.0568
H  0.3147    -2.0813    0.0036
H  0.1422    -0.6661    -0.9931
C  2.0996    -0.9041    -0.1115
C  2.8478    -1.9067    0.7291
H  2.6020    -2.9258    0.4129
H  3.9335    -1.7881    0.6480
H  2.5817    -1.7956    1.7849
C  2.7671    -0.0038    -0.8601
H  3.8566    -0.0192    -0.8459
C  2.1869    1.0700    -1.7254
H  1.1059    1.1810    -1.6162
H  2.6408    2.0319    -1.4660
H  2.4093    0.8610    -2.7761
C  -2.1142    1.8746    0.2214
H  -1.0542    2.0193    0.0008
H  -2.4260    2.6636    0.9134
H  -2.6549    2.0099    -0.7216
C  -2.4246    0.5234    0.8045
C  -3.8960    0.2333    0.9471
H  -4.0853    -0.7545    1.3801
H  -4.3862    0.2668    -0.0314
H  -4.3667    0.9770    1.5985
C  -1.5054    -0.3906    1.1721
H  -1.8521    -1.3460    1.5661
C  -0.0066    -0.2550    1.1289
H  0.3011    0.7954    1.0983
H  0.3925    -0.6508    2.0714

