%chk=01-IsoP_166_gaussian.chk
%nproc=1
%mem=4000Mb
#p opt mp2/6-31g(d,p)

Conformer number 166. Energy MM = 23.242 kcal/mol

0 1
C  0.9593    -0.4491    0.6249
H  0.6460    0.4514    1.1665
H  1.0812    -1.2164    1.4013
C  2.2920    -0.2228    -0.0588
C  3.1337    -1.4596    -0.2423
H  4.0893    -1.2422    -0.7312
H  3.3551    -1.9155    0.7282
H  2.6064    -2.1933    -0.8600
C  2.7433    0.9798    -0.4672
H  3.7285    1.0375    -0.9291
C  2.0332    2.2941    -0.3863
H  2.0336    2.7697    -1.3725
H  0.9921    2.2081    -0.0677
H  2.5553    2.9562    0.3110
C  -2.5943    1.0631    -0.2990
H  -2.9106    1.8175    0.4296
H  -3.3233    1.0462    -1.1156
H  -1.6388    1.4000    -0.7072
C  -2.5213    -0.2883    0.3568
C  -3.7771    -0.6929    1.0840
H  -4.0026    0.0242    1.8801
H  -3.6913    -1.6833    1.5433
H  -4.6236    -0.7210    0.3900
C  -1.4468    -1.1011    0.3371
H  -1.5057    -2.0524    0.8662
C  -0.1336    -0.8711    -0.3623
H  0.1494    -1.8076    -0.8593
H  -0.2293    -0.1311    -1.1636

