%chk=01-IsoP_269_gaussian.chk
%nproc=1
%mem=4000Mb
#p opt mp2/6-31g(d,p)

Conformer number 269. Energy MM = 23.287 kcal/mol

0 1
C  0.8916    -0.0047    0.4029
H  0.4721    -0.2104    1.3969
H  1.3640    0.9806    0.4957
C  1.9242    -1.0637    0.0762
C  1.5884    -2.4515    0.5598
H  1.4701    -2.4557    1.6483
H  2.3685    -3.1781    0.3091
H  0.6551    -2.7999    0.1066
C  3.0815    -0.8260    -0.5723
H  3.7671    -1.6570    -0.7363
C  3.5594    0.4743    -1.1369
H  3.8451    0.3336    -2.1844
H  4.4410    0.8168    -0.5867
H  2.8057    1.2643    -1.1090
C  -3.3546    2.1600    0.4571
H  -2.8896    3.0974    0.1342
H  -3.5902    2.2556    1.5221
H  -4.2913    2.0456    -0.0983
C  -2.4627    0.9685    0.2242
C  -3.0628    -0.3450    0.6439
H  -3.4125    -0.2842    1.6803
H  -2.3585    -1.1786    0.5971
H  -3.9183    -0.5889    0.0057
C  -1.2344    1.1237    -0.3075
H  -0.8996    2.1309    -0.5563
C  -0.2325    0.0492    -0.6367
H  0.1868    0.2723    -1.6264
H  -0.7133    -0.9290    -0.7359

