%chk=01-IsoP_2752_gaussian.chk
%nproc=1
%mem=4000Mb
#p opt mp2/6-31g(d,p)

Conformer number 2752. Energy MM = 23.242 kcal/mol

0 1
C  -0.6474    -0.8737    -0.5883
H  -0.3783    -1.8141    -1.0879
H  -0.4827    -0.0968    -1.3444
C  -2.1076    -0.9274    -0.1889
C  -2.5947    -2.2776    0.2708
H  -3.6566    -2.2665    0.5384
H  -2.4616    -3.0197    -0.5232
H  -2.0357    -2.6064    1.1525
C  -2.9515    0.1219    -0.2471
H  -3.9912    -0.0285    0.0423
C  -2.6316    1.5262    -0.6520
H  -3.1484    1.7707    -1.5849
H  -1.5635    1.7072    -0.7907
H  -2.9810    2.2171    0.1221
C  2.0561    1.9113    0.2503
H  0.9791    2.0095    0.4040
H  2.5623    2.3512    1.1156
H  2.3051    2.5075    -0.6343
C  2.5052    0.4891    0.0568
C  3.9523    0.3443    -0.3364
H  4.5985    0.7805    0.4324
H  4.2465    -0.7029    -0.4623
H  4.1416    0.8590    -1.2841
C  1.7197    -0.5966    0.1976
H  2.1539    -1.5791    0.0120
C  0.2731    -0.6362    0.6130
H  -0.0184    0.2774    1.1414
H  0.1567    -1.4476    1.3426

