%chk=01-IsoP_3559_gaussian.chk
%nproc=1
%mem=4000Mb
#p opt mp2/6-31g(d,p)

Conformer number 3559. Energy MM = 23.287 kcal/mol

0 1
C  0.0574    0.9677    -0.3551
H  -0.1997    1.5748    0.5211
H  -0.8515    0.9646    -0.9719
C  1.1819    1.6114    -1.1399
C  1.1862    1.3037    -2.6157
H  0.2515    1.6400    -3.0761
H  2.0102    1.7990    -3.1402
H  1.2890    0.2269    -2.7823
C  2.1150    2.4251    -0.6074
H  2.8685    2.8553    -1.2666
C  2.2719    2.8151    0.8283
H  2.0702    3.8839    0.9472
H  3.3020    2.6253    1.1469
H  1.6158    2.2620    1.5039
C  -2.6619    -2.5233    1.4163
H  -3.6670    -2.2878    1.0515
H  -2.5688    -3.6107    1.5045
H  -2.5652    -2.0992    2.4213
C  -1.6225    -1.9875    0.4665
C  -1.7091    -2.5487    -0.9260
H  -1.0418    -2.0541    -1.6355
H  -1.4631    -3.6155    -0.9178
H  -2.7265    -2.4328    -1.3152
C  -0.7215    -1.0742    0.8783
H  -0.7686    -0.7272    1.9107
C  0.3978    -0.4615    0.0794
H  1.2963    -0.4543    0.7100
H  0.6537    -1.0778    -0.7882

