%chk=01-IsoP_2542_gaussian.chk
%nproc=1
%mem=4000Mb
#p opt mp2/6-31g(d,p)

Conformer number 2542. Energy MM = 23.242 kcal/mol

0 1
C  0.3965    -0.9415    0.7229
H  -0.1343    -0.2771    1.4152
H  -0.0133    -1.9409    0.9220
C  1.8812    -0.9480    1.0238
C  2.5997    -2.2236    0.6656
H  3.6662    -2.1818    0.9110
H  2.1677    -3.0687    1.2115
H  2.5155    -2.4220    -0.4075
C  2.5472    0.0774    1.5908
H  3.6130    -0.0375    1.7862
C  1.9992    1.4132    1.9831
H  0.9739    1.5798    1.6457
H  2.0276    1.5213    3.0715
H  2.6182    2.2035    1.5460
C  -3.6633    0.3292    -1.4236
H  -3.9200    0.8729    -2.3387
H  -4.2869    0.7072    -0.6069
H  -3.9217    -0.7235    -1.5794
C  -2.2046    0.5184    -1.0979
C  -1.7993    1.9507    -0.8838
H  -2.4526    2.4187    -0.1394
H  -1.8881    2.5108    -1.8203
H  -0.7756    2.0627    -0.5199
C  -1.3782    -0.5418    -1.0057
H  -1.7920    -1.5379    -1.1638
C  0.1006    -0.5321    -0.7234
H  0.5449    0.4446    -0.9413
H  0.5785    -1.2340    -1.4185

