%chk=01-IsoP_2021_gaussian.chk
%nproc=1
%mem=4000Mb
#p opt mp2/6-31g(d,p)

Conformer number 2021. Energy MM = 23.287 kcal/mol

0 1
C  -0.3405    -0.8998    0.1883
H  0.0481    -1.3690    1.1000
H  0.2638    -1.3229    -0.6255
C  -1.7915    -1.2764    -0.0297
C  -2.2373    -1.2875    -1.4697
H  -1.6394    -2.0005    -2.0467
H  -3.2886    -1.5751    -1.5762
H  -2.1203    -0.2944    -1.9148
C  -2.6492    -1.6092    0.9552
H  -3.6681    -1.8873    0.6868
C  -2.3835    -1.6284    2.4272
H  -3.1539    -1.0470    2.9441
H  -2.4261    -2.6565    2.7991
H  -1.4161    -1.2014    2.7006
C  3.6059    1.7682    0.0237
H  3.8239    2.8189    -0.1941
H  3.7662    1.6111    1.0956
H  4.3261    1.1437    -0.5150
C  2.2006    1.4295    -0.4007
C  1.9293    1.6386    -1.8650
H  1.9760    2.7051    -2.1078
H  2.6818    1.1154    -2.4650
H  0.9545    1.2624    -2.1837
C  1.3047    0.9702    0.4947
H  1.6235    0.8418    1.5293
C  -0.1389    0.6175    0.2531
H  -0.7299    1.0362    1.0780
H  -0.5211    1.0966    -0.6538

