%chk=01-IsoP_460_gaussian.chk
%nproc=1
%mem=4000Mb
#p opt mp2/6-31g(d,p)

Conformer number 460. Energy MM = 23.287 kcal/mol

0 1
C  -0.9390    0.1780    0.1283
H  -0.9409    -0.5963    0.9072
H  -1.1241    1.1165    0.6644
C  -2.0586    -0.1074    -0.8514
C  -2.2962    -1.5680    -1.1393
H  -1.4009    -2.0236    -1.5737
H  -2.5455    -2.1011    -0.2160
H  -3.1204    -1.7231    -1.8436
C  -2.8276    0.8379    -1.4271
H  -3.6235    0.5226    -2.1014
C  -2.7162    2.3217    -1.2732
H  -2.6716    2.7883    -2.2626
H  -1.8256    2.6369    -0.7249
H  -3.5980    2.7087    -0.7537
C  3.4801    0.1695    1.9145
H  3.3721    -0.3207    2.8875
H  3.4241    1.2508    2.0790
H  4.4764    -0.0550    1.5197
C  2.4205    -0.3203    0.9622
C  2.4632    -1.8000    0.6972
H  2.4580    -2.3515    1.6436
H  3.3773    -2.0586    0.1530
H  1.6114    -2.1617    0.1168
C  1.5264    0.5359    0.4303
H  1.5832    1.5875    0.7120
C  0.4311    0.2268    -0.5554
H  0.6279    -0.7066    -1.0921
H  0.4366    1.0130    -1.3215

