%chk=01-IsoP_1639_gaussian.chk
%nproc=1
%mem=4000Mb
#p opt mp2/6-31g(d,p)

Conformer number 1639. Energy MM = 23.242 kcal/mol

0 1
C  -0.2813    -1.1380    -0.0528
H  0.0950    -1.1301    0.9772
H  0.2680    -1.9508    -0.5468
C  -1.7619    -1.4573    -0.0765
C  -2.2473    -2.1431    -1.3278
H  -2.0676    -1.5125    -2.2042
H  -3.3200    -2.3608    -1.2921
H  -1.7216    -3.0932    -1.4682
C  -2.6145    -1.1888    0.9322
H  -3.6588    -1.4805    0.8239
C  -2.3088    -0.4968    2.2230
H  -2.4202    -1.1977    3.0558
H  -3.0167    0.3249    2.3723
H  -1.3039    -0.0708    2.2617
C  3.6508    1.5531    -0.0407
H  3.8741    2.6020    -0.2623
H  4.1561    1.2785    0.8911
H  4.0810    0.9453    -0.8437
C  2.1635    1.3548    0.0934
C  1.5253    2.1766    1.1793
H  1.5816    3.2407    0.9281
H  2.0500    2.0183    2.1277
H  0.4764    1.9266    1.3535
C  1.5104    0.4918    -0.7093
H  2.0848    -0.0641    -1.4504
C  0.0341    0.1975    -0.7338
H  -0.2840    0.1690    -1.7837
H  -0.5444    1.0054    -0.2740

