%chk=01-IsoP_3504_gaussian.chk
%nproc=1
%mem=4000Mb
#p opt mp2/6-31g(d,p)

Conformer number 3504. Energy MM = 23.242 kcal/mol

0 1
C  -0.8080    0.0544    -0.8904
H  -0.7245    1.0597    -0.4604
H  -0.7227    0.2043    -1.9751
C  -2.1634    -0.5467    -0.5802
C  -2.6689    -1.5398    -1.5951
H  -3.6545    -1.9374    -1.3311
H  -1.9817    -2.3879    -1.6759
H  -2.7558    -1.0665    -2.5786
C  -2.9080    -0.2293    0.4974
H  -3.8819    -0.7034    0.6163
C  -2.5508    0.7089    1.6067
H  -3.2137    1.5791    1.5853
H  -1.5175    1.0604    1.5645
H  -2.6835    0.2031    2.5686
C  2.2384    0.7137    1.5701
H  2.9376    0.1573    2.2025
H  1.2237    0.4507    1.8771
H  2.3638    1.7824    1.7752
C  2.5164    0.4311    0.1193
C  3.8428    0.9511    -0.3702
H  4.6601    0.5025    0.2040
H  4.0150    0.7224    -1.4272
H  3.8907    2.0388    -0.2534
C  1.6810    -0.2155    -0.7171
H  1.9842    -0.3449    -1.7562
C  0.3432    -0.8241    -0.3905
H  0.2393    -1.0136    0.6829
H  0.2988    -1.8108    -0.8688

