%chk=01-IsoP_2917_gaussian.chk
%nproc=1
%mem=4000Mb
#p opt mp2/6-31g(d,p)

Conformer number 2917. Energy MM = 23.287 kcal/mol

0 1
C  -0.8253    -0.4065    -0.0123
H  -0.3197    -1.2646    0.4509
H  -1.1336    -0.7629    -1.0024
C  -2.0340    -0.0384    0.8233
C  -1.8467    -0.1816    2.3122
H  -1.0380    0.4683    2.6610
H  -1.5954    -1.2168    2.5653
H  -2.7495    0.0857    2.8715
C  -3.2160    0.3662    0.3177
H  -4.0305    0.5846    1.0079
C  -3.5657    0.5834    -1.1205
H  -3.9972    1.5820    -1.2437
H  -4.3122    -0.1514    -1.4365
H  -2.7072    0.5153    -1.7924
C  3.6646    -0.2392    -1.6035
H  4.0426    -1.2535    -1.4386
H  3.3047    -0.1824    -2.6363
H  4.4979    0.4640    -1.5032
C  2.5863    0.0856    -0.6029
C  3.0360    0.0300    0.8311
H  3.7603    0.8265    1.0295
H  2.2172    0.1325    1.5469
H  3.5172    -0.9323    1.0368
C  1.3372    0.3827    -1.0114
H  1.1246    0.3737    -2.0806
C  0.1561    0.7609    -0.1579
H  -0.3463    1.6114    -0.6368
H  0.4728    1.1234    0.8251

