%chk=06-PVA_1093_gaussian.chk
%nproc=1
%mem=4000Mb
#p opt mp2/6-31g(d,p)

Conformer number 1093. Energy MM = 1.086 kcal/mol

0 1
C  2.5504    0.1177    -0.1038
H  2.6388    0.5597    -1.1013
H  3.3964    -0.5614    0.0424
H  2.6314    0.9192    0.6370
C  1.2380    -0.6414    0.0409
H  1.2294    -1.4758    -0.6699
H  1.1985    -1.0670    1.0510
C  0.0181    0.2561    -0.1955
H  0.0941    0.7243    -1.1837
C  -1.2847    -0.5468    -0.1084
H  -1.2548    -1.3827    -0.8168
H  -1.3962    -0.9697    0.8975
C  -2.5105    0.3075    -0.4032
H  -3.4162    -0.3059    -0.3606
H  -2.4476    0.7505    -1.4022
H  -2.6181    1.1161    0.3264
O  0.0002    1.3038    0.7715
H  -0.0672    0.8957    1.6516

