%chk=06-PVA_1270_gaussian.chk
%nproc=1
%mem=4000Mb
#p opt mp2/6-31g(d,p)

Conformer number 1270. Energy MM = 1.086 kcal/mol

0 1
C  0.0754    -2.5180    0.4096
H  0.4669    -2.4651    1.4304
H  0.5083    -3.3993    -0.0744
H  -1.0081    -2.6625    0.4628
C  0.4301    -1.2619    -0.3751
H  1.5205    -1.1941    -0.4643
H  0.0213    -1.3641    -1.3877
C  -0.1181    0.0092    0.2833
H  0.2474    0.0740    1.3146
C  0.3087    1.2614    -0.4908
H  -0.1037    1.2311    -1.5067
H  1.4009    1.2907    -0.5783
C  -0.1683    2.5442    0.1775
H  0.1803    3.4150    -0.3869
H  -1.2609    2.5883    0.2220
H  0.2220    2.6225    1.1972
O  -1.5413    -0.0568    0.3396
H  -1.8732    -0.1146    -0.5727

